geometry optimzed in LAMMPS
_audit_creation_date              2020-12-01 
_audit_creation_method            'lammps2cif' 
_symmetry_space_group_name_H-M    'P1' 
_symmetry_Int_Tables_number       1 
_symmetry_cell_setting            triclinic 
loop_ 
_symmetry_equiv_pos_as_xyz 
  x,y,z 
_cell_length_a                    46.11457858 
_cell_length_b                    46.172403948893404 
_cell_length_c                    75.3086493215396 
_cell_angle_alpha                 90.09983290670596 
_cell_angle_beta                  89.94256902153867 
_cell_angle_gamma                 119.82276555041355 
loop_ 
_atom_site_label 
_atom_site_type_symbol 
_atom_site_fract_x 
_atom_site_fract_y 
_atom_site_fract_z 
_atom_site_charge 
Zn1        Zn  0.19083782  0.31073660  0.62371998     1.49700
Zn2        Zn  0.19079476  0.37881454  0.62471001     1.49400
Zn3        Zn  0.12246894  0.31111257  0.62423703     1.49100
Zn4        Zn  0.16771093  0.33132149  0.65976504     1.49500
O5          O  0.16794164  0.33302028  0.63345781    -1.84200
O6          O  0.22998541  0.34073207  0.60865221    -0.74800
O7          O  0.16115348  0.38959398  0.60994733    -0.74600
O8          O  0.11204702  0.27071316  0.60984277    -0.74100
O9          O  0.22903355  0.38818862  0.60850033    -0.74800
O10         O  0.16118506  0.27315933  0.60783069    -0.74400
O11         O  0.11453209  0.34078692  0.60785778    -0.75000
O12         O  0.11891072  0.30805221  0.66900429    -0.74400
O13         O  0.20874036  0.41019943  0.64505057    -0.75100
O14         O  0.08959752  0.29650293  0.64399751    -0.74500
O15         O  0.19343137  0.37945673  0.66966963    -0.75000
O16         O  0.19076447  0.30495986  0.66822604    -0.74900
O17         O  0.20618216  0.29193539  0.64284183    -0.74700
C18         C  0.24147374  0.37051503  0.60326798     0.77100
C19         C  0.13205224  0.37136560  0.60356317     0.77600
C20         C  0.13047899  0.25976610  0.60376468     0.76500
C21         C  0.09088730  0.29596908  0.66085763     0.76900
C22         C  0.20837250  0.40785412  0.66189120     0.78100
C23         C  0.20464156  0.29103481  0.65970142     0.77100
C24         C  0.33455816  0.16391272  0.71750974     0.45400
H25         H  0.33496194  0.16315015  0.70276771    -0.03600
C26         C  0.33349192  0.16544022  0.75217451     0.45500
H27         H  0.33301588  0.16604458  0.76691848    -0.03600
C28         C  0.31721348  0.12917270  0.72619011    -0.17300
C29         C  0.36955513  0.18229669  0.72599006    -0.17100
C30         C  0.31624790  0.18150840  0.72497800    -0.17400
C31         C  0.31702738  0.12995969  0.74443015    -0.17400
C32         C  0.36897018  0.18355460  0.74425474    -0.17000
C33         C  0.31520273  0.18178569  0.74325519    -0.17300
Zn34       Zn  0.19334093  0.31218877  0.84499444     1.49700
Zn35       Zn  0.16690985  0.33244307  0.80983038     1.49400
Zn36       Zn  0.12239910  0.30641324  0.84568148     1.49100
Zn37       Zn  0.18760524  0.37728213  0.84563969     1.49500
O38         O  0.16753719  0.33210317  0.83618939    -1.84200
O39         O  0.20827518  0.29522028  0.82484614    -0.74800
O40         O  0.11793307  0.30770267  0.80093361    -0.74600
O41         O  0.11625752  0.26787080  0.86057081    -0.74100
O42         O  0.19164116  0.30863712  0.80002682    -0.74800
O43         O  0.16715720  0.27431561  0.86192364    -0.74400
O44         O  0.08921962  0.28927012  0.82607855    -0.75000
O45         O  0.15567737  0.38421279  0.86051897    -0.74400
O46         O  0.19020338  0.38127860  0.80085144    -0.75100
O47         O  0.11054628  0.33402370  0.86151182    -0.74500
O48         O  0.20262983  0.41024166  0.82602986    -0.75000
O49         O  0.22745788  0.38877018  0.86101647    -0.74900
O50         O  0.23398425  0.34454295  0.85845717    -0.74700
C51         C  0.20657972  0.29526937  0.80799526     0.77100
C52         C  0.09011442  0.29171747  0.80924428     0.77600
C53         C  0.13659755  0.25922403  0.86655123     0.76500
C54         C  0.12622383  0.36460286  0.86603833     0.76900
C55         C  0.20261536  0.40915046  0.80916176     0.78100
C56         C  0.24335351  0.37353620  0.86455857     0.77100
Zn57       Zn  0.37950557  0.19293531  0.34421140     1.49700
Zn58       Zn  0.33312992  0.16835916  0.30880786     1.49400
Zn59       Zn  0.31223042  0.12421718  0.34476398     1.49100
Zn60       Zn  0.31065513  0.19194512  0.34413828     1.49500
O61         O  0.33387365  0.16934728  0.33514995    -1.84200
O62         O  0.41157783  0.20572541  0.32421798    -0.74800
O63         O  0.30684771  0.11942141  0.30004203    -0.74600
O64         O  0.34329447  0.11509626  0.35939644    -0.74100
O65         O  0.38155526  0.19055873  0.29934109    -0.74800
O66         O  0.38883181  0.16485546  0.36104434    -0.74400
O67         O  0.29268071  0.09053858  0.32525273    -0.75000
O68         O  0.27166782  0.16256184  0.35970026    -0.74400
O69         O  0.31019091  0.19400747  0.29927924    -0.75100
O70         O  0.27536606  0.11658289  0.36148409    -0.74500
O71         O  0.29491321  0.20863608  0.32420105    -0.75000
O72         O  0.34039394  0.23153007  0.35916473    -0.74900
O73         O  0.38975536  0.23444381  0.35777825    -0.74700
C74         C  0.40975428  0.20385296  0.30736735     0.77100
C75         C  0.29222998  0.09157404  0.30836691     0.77600
C76         C  0.37239345  0.13430695  0.36555157     0.76500
C77         C  0.26186510  0.13366622  0.36606165     0.76900
C78         C  0.29633465  0.20840425  0.30734255     0.78100
C79         C  0.37116988  0.24568720  0.36327361     0.77100
C80         C  0.16598767  0.33576634  0.21651449     0.45400
H81         H  0.16603488  0.33615590  0.20176160    -0.03600
C82         C  0.16583492  0.33478843  0.25120061     0.45500
H83         H  0.16569116  0.33429385  0.26595249    -0.03600
C84         C  0.13085283  0.31693317  0.22461819    -0.17300
C85         C  0.18461910  0.31902242  0.22442924    -0.17100
C86         C  0.18238773  0.37060741  0.22504434    -0.17400
C87         C  0.13072416  0.31683453  0.24287010    -0.17400
C88         C  0.18415245  0.31802797  0.24269035    -0.17000
C89         C  0.18279718  0.37020933  0.24332125    -0.17300
Zn90       Zn  0.28590813  0.14474379  0.14137816     1.49700
Zn91       Zn  0.33141666  0.16670774  0.10757851     1.49400
Zn92       Zn  0.35626315  0.21371036  0.14086921     1.49100
Zn93       Zn  0.35546106  0.14325143  0.14057650     1.49500
O94         O  0.33232132  0.16710383  0.13305464    -1.84200
O95         O  0.25251295  0.12532750  0.12106711    -0.74800
O96         O  0.34741941  0.21106398  0.09743502    -0.74600
O97         O  0.32563859  0.22404277  0.15549654    -0.74100
O98         O  0.28663849  0.13788480  0.09809245    -0.74800
O99         O  0.27657048  0.17701262  0.15504155    -0.74400
O100        O  0.37121249  0.24580907  0.11997077    -0.75000
O101        O  0.39632739  0.17405060  0.15507477    -0.74400
O102        O  0.35907941  0.14995296  0.09710377    -0.75100
O103        O  0.39736085  0.22276171  0.15491579    -0.74500
O104        O  0.37226610  0.12780180  0.11951955    -0.75000
O105        O  0.32396731  0.10261364  0.15496439    -0.74900
O106        O  0.27722440  0.10543509  0.15660114    -0.74700
C107        C  0.25743866  0.12374154  0.10454025     0.77100
C108        C  0.36413419  0.24044993  0.10351146     0.77600
C109        C  0.29466619  0.20757658  0.15950055     0.76500
C110        C  0.41021596  0.20487855  0.15928730     0.76900
C111        C  0.37262162  0.13386563  0.10299030     0.78100
C112        C  0.29386493  0.09090485  0.16022532     0.77100
Zn113      Zn  0.04715632  0.02041114  0.97706774     1.49700
Zn114      Zn  0.47939090  0.02455706  0.97630118     1.49400
Zn115      Zn  0.47573463  0.45311643  0.97697239     1.49100
Zn116      Zn  0.99949063  0.99974162  0.01025254     1.49500
O117        O  0.00048840  0.99948027  0.98482082    -1.84200
O118        O  0.05927433  0.06143597  0.96253122    -0.74800
O119        O  0.44160245  0.49610727  0.95992553    -0.74600
O120        O  0.00468502  0.44197541  0.96191940    -0.74100
O121        O  0.01250418  0.06417537  0.96213568    -0.74800
O122        O  0.05375436  0.48888093  0.96141395    -0.74400
O123        O  0.43784875  0.44625535  0.96124949    -0.75000
O124        O  0.47142841  0.45513605  0.02028489    -0.74400
O125        O  0.46216348  0.04150833  0.99641212    -0.75100
O126        O  0.45725535  0.42041590  0.99743506    -0.74500
O127        O  0.48219767  0.02785153  0.01969037    -0.75000
O128        O  0.04399718  0.01632322  0.02051140    -0.74900
O129        O  0.07925558  0.03335551  0.99781624    -0.74700
C130        C  0.04288410  0.07552466  0.95759544     0.77100
C131        C  0.42793250  0.46559499  0.95522512     0.77600
C132        C  0.03478016  0.45874522  0.95656685     0.76500
C133        C  0.45706538  0.42577119  0.01401717     0.76900
C134        C  0.46700748  0.04181685  0.01308562     0.78100
C135        C  0.07345178  0.02925581  0.01443021     0.77100
Zn136      Zn  0.00067394  0.50009312  0.50996462     1.49700
Zn137      Zn  0.02434258  0.47831807  0.47611628     1.49400
Zn138      Zn  0.45504454  0.48050392  0.47604301     1.49100
Zn139      Zn  0.02525203  0.04857021  0.47693075     1.49500
O140        O  0.00134962  0.50186354  0.48448206    -1.84200
O141        O  0.02633627  0.47992110  0.51959710    -0.74800
O142        O  0.49384624  0.44059049  0.46001668    -0.74600
O143        O  0.42124865  0.46198948  0.49619044    -0.74100
O144        O  0.04069759  0.46050702  0.49629739    -0.74800
O145        O  0.45490713  0.47433322  0.51940903    -0.74400
O146        O  0.44697596  0.44327071  0.45932264    -0.75000
O147        O  0.49613423  0.05891148  0.46131702    -0.74400
O148        O  0.06431577  0.00942931  0.46138042    -0.75100
O149        O  0.44661140  0.01260931  0.46202199    -0.74500
O150        O  0.06564294  0.05816830  0.46253487    -0.75000
O151        O  0.04014077  0.08011544  0.49787549    -0.74900
O152        O  0.02041881  0.04478267  0.52046370    -0.74700
C153        C  0.04030222  0.46464323  0.51301986     0.77100
C154        C  0.46435546  0.43030987  0.45420957     0.77600
C155        C  0.42577147  0.46131910  0.51283903     0.76500
C156        C  0.46551115  0.04244867  0.45676675     0.76900
C157        C  0.07764134  0.04013745  0.45715251     0.78100
C158        C  0.03566888  0.07432730  0.51446946     0.77100
C159        C  0.21014866  0.08250919  0.06274943    -0.10900
C160        C  0.17801048  0.07662021  0.06679354     0.06300
C161        C  0.17144802  0.08431829  0.08390824    -0.09600
C162        C  0.19692839  0.09859988  0.09655830    -0.11300
C163        C  0.22934841  0.10566583  0.09219380    -0.01100
C164        C  0.23555560  0.09696348  0.07528219    -0.10200
C165        C  0.15168994  0.06323314  0.05304183     0.06300
H166        H  0.14691262  0.08028261  0.08733747     0.08200
H167        H  0.19156326  0.10516011  0.10948414     0.11700
H168        H  0.26024954  0.10168042  0.07162920     0.11900
H169        H  0.21572999  0.07610605  0.04983610     0.08200
C170        C  0.15918924  0.07430854  0.03534271    -0.10900
C171        C  0.13399562  0.06255631  0.02252303    -0.10200
C172        C  0.10091578  0.03982428  0.02726305    -0.01100
C173        C  0.09362824  0.02821983  0.04485303    -0.11300
C174        C  0.11875969  0.03972617  0.05758522    -0.09700
H175        H  0.18434600  0.09274133  0.03151019     0.08200
H176        H  0.14020658  0.07199634  0.00908057     0.11900
H177        H  0.06835946  0.01036735  0.04884995     0.11700
H178        H  0.11238586  0.03024063  0.07101073     0.08200
C179        C  0.37646240  0.28721112  0.06066112    -0.10900
C180        C  0.40045333  0.31979081  0.06547120     0.06300
C181        C  0.41155629  0.32658938  0.08318706    -0.09600
C182        C  0.39924823  0.30103279  0.09578958    -0.11300
C183        C  0.37576723  0.26830242  0.09083228    -0.01100
C184        C  0.36427606  0.26175222  0.07318363    -0.10200
C185        C  0.41388003  0.34650501  0.05198103     0.06300
H186        H  0.43030053  0.35150167  0.08720175     0.08200
H187        H  0.40862834  0.30673514  0.10926601     0.11700
H188        H  0.34596330  0.23681014  0.06895591     0.11900
H189        H  0.36699723  0.28140522  0.04720131     0.08200
C190        C  0.42155763  0.34040985  0.03477261    -0.10900
C191        C  0.43468628  0.36587673  0.02213322    -0.10200
C192        C  0.44060088  0.39785795  0.02658032    -0.01100
C193        C  0.43244287  0.40375279  0.04369189    -0.11300
C194        C  0.41912516  0.37831189  0.05624112    -0.09700
H195        H  0.41810383  0.31616483  0.03121200     0.08200
H196        H  0.44109546  0.36082737  0.00909228     0.11900
H197        H  0.43651106  0.42815836  0.04743108     0.11700
H198        H  0.41282825  0.38350737  0.06927493     0.08200
C199        C  0.41461562  0.07515377  0.03370012    -0.10900
C200        C  0.42889944  0.08416810  0.05076359     0.06300
C201        C  0.45667714  0.08070610  0.05483074    -0.09600
C202        C  0.46935505  0.06768157  0.04234466    -0.11300
C203        C  0.45477811  0.05810816  0.02542637    -0.01100
C204        C  0.42759438  0.06238996  0.02108255    -0.10200
C205        C  0.41501084  0.09716783  0.06432501     0.06300
H206        H  0.46871880  0.08814925  0.06767716     0.08200
H207        H  0.49058746  0.06495081  0.04599016     0.11700
H208        H  0.41575596  0.05489856  0.00818512     0.11900
H209        H  0.39293305  0.07721605  0.03024216     0.08200
C210        C  0.40360727  0.11903160  0.05939475    -0.10900
C211        C  0.39036046  0.13118285  0.07206405    -0.10200
C212        C  0.38827730  0.12185951  0.09001030    -0.01100
C213        C  0.40009112  0.10035466  0.09504390    -0.11300
C214        C  0.41325957  0.08803336  0.08229865    -0.09700
H215        H  0.40519862  0.12703505  0.04574514     0.08200
H216        H  0.38163646  0.14788249  0.06772521     0.11900
H217        H  0.39865625  0.09263125  0.10873855     0.11700
H218        H  0.42151478  0.07087966  0.08646883     0.08200
C219        C  0.04640539  0.25011456  0.20771562    -0.10900
C220        C  0.03900450  0.26759116  0.19488947     0.06300
C221        C  0.06322612  0.30090571  0.19111774    -0.09600
C222        C  0.09358203  0.31662631  0.20036795    -0.11300
C223        C  0.10019376  0.29942079  0.21360372    -0.01100
C224        C  0.07674535  0.26580259  0.21687959    -0.10200
C225        C  0.00587369  0.25137104  0.18584071     0.06300
H226        H  0.05864949  0.31489250  0.18107436     0.08200
H227        H  0.11147549  0.34252234  0.19757463     0.11700
H228        H  0.08163491  0.25188694  0.22683947     0.11900
H229        H  0.02835353  0.22456729  0.21107101     0.08200
C230        C  0.98992131  0.21740735  0.18108328    -0.10900
C231        C  0.45865597  0.20218449  0.17276878    -0.10200
C232        C  0.44254300  0.22052905  0.16897687    -0.01100
C233        C  0.45838171  0.25441488  0.17382740    -0.11300
C234        C  0.48960587  0.26962235  0.18217466    -0.09700
H235        H  0.00185916  0.20267767  0.18350811     0.08200
H236        H  0.44731478  0.17610108  0.16910275     0.11900
H237        H  0.44671792  0.26930707  0.17111244     0.11700
H238        H  0.50082343  0.29563317  0.18595137     0.08200
C239        C  0.23366054  0.43758173  0.19142662    -0.10900
C240        C  0.22666812  0.46301455  0.19611984     0.06300
C241        C  0.20316274  0.45676553  0.20960043    -0.09600
C242        C  0.18767292  0.42619626  0.21844756    -0.11300
C243        C  0.19591673  0.40151262  0.21430494    -0.01100
C244        C  0.21837271  0.40707917  0.20044312    -0.10200
C245        C  0.24406785  0.49607009  0.18718842     0.06300
H246        H  0.19733622  0.47580706  0.21365261     0.08200
H247        H  0.16985699  0.42212938  0.22887308     0.11700
H248        H  0.22485365  0.38822352  0.19696572     0.11900
H249        H  0.25108148  0.44131964  0.18084399     0.08200
C250        C  0.27822558  0.01083039  0.18258899    -0.10900
C251        C  0.29455410  0.04188814  0.17415330    -0.10200
C252        C  0.27731166  0.05903890  0.17019226    -0.01100
C253        C  0.24345180  0.04452876  0.17499364    -0.11300
C254        C  0.22711764  0.01345228  0.18335829    -0.09700
H255        H  0.29231345  0.99844121  0.18563405     0.08200
H256        H  0.32062900  0.05232642  0.17061659     0.11900
H257        H  0.22932318  0.05691293  0.17202098     0.11700
H258        H  0.20061362  0.50253503  0.18642942     0.08200
C259        C  0.28283984  0.27551482  0.18090349    -0.10900
C260        C  0.24881018  0.25807159  0.18558045     0.06300
C261        C  0.23018037  0.22367078  0.18193752    -0.09600
C262        C  0.24514693  0.20717498  0.17373939    -0.11300
C263        C  0.27915533  0.22465878  0.16901977    -0.01100
C264        C  0.29782769  0.25901770  0.17275310    -0.10200
C265        C  0.23301220  0.27551380  0.19457094     0.06300
H266        H  0.20406945  0.20935090  0.18563177     0.08200
H267        H  0.23000193  0.18071492  0.17104677     0.11700
H268        H  0.32399710  0.27334108  0.16916466     0.11900
H269        H  0.29783408  0.30208732  0.18330317     0.08200
C270        C  0.25069073  0.30000070  0.20754053    -0.10900
C271        C  0.23540684  0.31517191  0.21667661    -0.10200
C272        C  0.20198890  0.30589022  0.21323087    -0.01100
C273        C  0.18462873  0.28252538  0.19982379    -0.11300
C274        C  0.19995214  0.26736302  0.19060320    -0.09700
H275        H  0.27604177  0.30672882  0.21104695     0.08200
H276        H  0.24938150  0.33351967  0.22682646     0.11900
H277        H  0.15886089  0.27517412  0.19692741     0.11700
H278        H  0.18585011  0.24908653  0.18045822     0.08200
C279        C  0.24632385  0.45664476  0.25957483    -0.10900
C280        C  0.22770933  0.46337056  0.27202528     0.06300
C281        C  0.19493683  0.43797078  0.27602217    -0.09600
C282        C  0.18079329  0.40702725  0.26730061    -0.11300
C283        C  0.19910539  0.40097566  0.25440910    -0.01100
C284        C  0.23226897  0.42572748  0.25097317    -0.10200
C285        C  0.24276422  0.49655879  0.28098592     0.06300
H286        H  0.17991603  0.44236794  0.28552943     0.08200
H287        H  0.15513470  0.38832387  0.27008716     0.11700
H288        H  0.24699914  0.42140086  0.24123138     0.11900
H289        H  0.27183967  0.47531804  0.25650035     0.08200
C290        C  0.23810743  0.99874940  0.29926297    -0.10900
C291        C  0.25373385  0.02962222  0.30793630    -0.10200
C292        C  0.27433255  0.05931757  0.29858042    -0.01100
C293        C  0.27822861  0.05736050  0.28018294    -0.11300
C294        C  0.26274813  0.02631106  0.27150221    -0.09700
H295        H  0.22345780  0.47628772  0.30701567     0.08200
H296        H  0.24993332  0.03012478  0.32209890     0.11900
H297        H  0.29376839  0.07970667  0.27256829     0.11700
H298        H  0.26643908  0.02552165  0.25734736     0.08200
C299        C  0.50205717  0.24124242  0.29760529    -0.10900
C300        C  0.00391207  0.24928184  0.27953713     0.06300
C301        C  0.47419218  0.24089872  0.27032947    -0.09600
C302        C  0.44326868  0.22519287  0.27911784    -0.11300
C303        C  0.44161505  0.21798145  0.29732627    -0.01100
C304        C  0.47135975  0.22587712  0.30638003    -0.10200
C305        C  0.03697378  0.26731104  0.27059327     0.06300
H306        H  0.97484252  0.24644657  0.25631674     0.08200
H307        H  0.42083669  0.21942679  0.27178654     0.11700
H308        H  0.47103877  0.22055015  0.32040167     0.11900
H309        H  0.52449041  0.24766223  0.30510730     0.08200
C310        C  0.04434813  0.29402275  0.25908777    -0.10900
C311        C  0.07542464  0.31106085  0.25069357    -0.10200
C312        C  0.09964377  0.30160307  0.25355047    -0.01100
C313        C  0.09284416  0.27563695  0.26539603    -0.11300
C314        C  0.06170392  0.25852965  0.27381582    -0.09700
H315        H  0.02611550  0.30182461  0.25663890     0.08200
H316        H  0.08039408  0.33124459  0.24165795     0.11900
H317        H  0.11114861  0.26782235  0.26759840     0.11700
H318        H  0.05667518  0.23793217  0.28253973     0.08200
C319        C  0.26013927  0.23675441  0.27014815    -0.10900
C320        C  0.24985144  0.25651355  0.27956177     0.06300
C321        C  0.25596585  0.26094989  0.29787778    -0.09600
C322        C  0.27140625  0.24564771  0.30664921    -0.11300
C323        C  0.28132372  0.22548709  0.29737478    -0.01100
C324        C  0.27586899  0.22150208  0.27895621    -0.10200
C325        C  0.23220324  0.27198520  0.27051799     0.06300
H326        H  0.24807184  0.27566025  0.30555890     0.08200
H327        H  0.27531625  0.24947068  0.32083412     0.11700
H328        H  0.28326720  0.20623604  0.27142466     0.11900
H329        H  0.25611640  0.23319461  0.25595943     0.08200
C330        C  0.23938693  0.30459372  0.27487770    -0.10900
C331        C  0.22277125  0.31910063  0.26634584    -0.10200
C332        C  0.19885730  0.30137363  0.25324385    -0.01100
C333        C  0.19078920  0.26844482  0.24930319    -0.11300
C334        C  0.20743967  0.25397830  0.25775648    -0.09700
H335        H  0.25843473  0.31918820  0.28459366     0.08200
H336        H  0.22942850  0.34456830  0.26950722     0.11900
H337        H  0.17200862  0.25415533  0.23939910     0.11700
H338        H  0.20078082  0.22860308  0.25438989     0.08200
C339        C  0.14980148  0.10259516  0.42903082    -0.10900
C340        C  0.15962239  0.08194036  0.42026715     0.06300
C341        C  0.14336492  0.04777418  0.42450064    -0.09600
C342        C  0.11750018  0.03445489  0.43691079    -0.11300
C343        C  0.10700304  0.05489578  0.44524563    -0.01100
C344        C  0.12367307  0.08919234  0.44133124    -0.10200
C345        C  0.18609352  0.09564227  0.40644870     0.06300
H346        H  0.14989293  0.03101834  0.41783351     0.08200
H347        H  0.10508578  0.00791060  0.43957739     0.11700
H348        H  0.11629553  0.10564726  0.44761820     0.11900
H349        H  0.16223543  0.12912987  0.42636119     0.08200
C350        C  0.18899255  0.12069993  0.39475993    -0.10900
C351        C  0.21347733  0.13300035  0.38153020    -0.10200
C352        C  0.23517627  0.12010660  0.37955117    -0.01100
C353        C  0.23225684  0.09504491  0.39116248    -0.11300
C354        C  0.20819845  0.08315795  0.40455211    -0.09700
H355        H  0.17202319  0.13047936  0.39563850     0.08200
H356        H  0.21522877  0.15235915  0.37274924     0.11900
H357        H  0.24907032  0.08507772  0.39014343     0.11700
H358        H  0.20718930  0.06441231  0.41354147     0.08200
C359        C  0.43287667  0.32081116  0.38989100    -0.10900
C360        C  0.41143156  0.32742024  0.40026560     0.06300
C361        C  0.37674340  0.30798624  0.39761001    -0.09600
C362        C  0.36379508  0.28220638  0.38514256    -0.11300
C363        C  0.38519584  0.27494914  0.37520897    -0.01100
C364        C  0.41988352  0.29469990  0.37758065    -0.10200
C365        C  0.42505025  0.35385601  0.41411136     0.06300
H366        H  0.35944845  0.31198296  0.40553931     0.08200
H367        H  0.33692307  0.26725067  0.38371249     0.11700
H368        H  0.43699154  0.28981657  0.37001946     0.11900
H369        H  0.45973783  0.33574713  0.39130884     0.08200
C370        C  0.45319636  0.35976339  0.42413959    -0.10900
C371        C  0.46582615  0.38440254  0.43726456    -0.10200
C372        C  0.45032916  0.40337739  0.44081535    -0.01100
C373        C  0.42204632  0.39732954  0.43092665    -0.11300
C374        C  0.40968034  0.37300377  0.41764869    -0.09700
H375        H  0.46526461  0.34505360  0.42202753     0.08200
H376        H  0.48763432  0.38846467  0.44469632     0.11900
H377        H  0.40981021  0.41184980  0.43320480     0.11700
H378        H  0.38833883  0.36955859  0.40998858     0.08200
C379        C  0.38327985  0.07508222  0.39595579    -0.10900
C380        C  0.41250058  0.09699086  0.40531986     0.06300
C381        C  0.42887229  0.13116267  0.40106637    -0.09600
C382        C  0.41631591  0.14310483  0.38784529    -0.11300
C383        C  0.38688134  0.12123919  0.37867528    -0.01100
C384        C  0.37053438  0.08708273  0.38285757    -0.10200
C385        C  0.42604662  0.08417556  0.41927646     0.06300
H386        H  0.45110492  0.14886334  0.40816817     0.08200
H387        H  0.42934109  0.16962689  0.38507122     0.11700
H388        H  0.34781286  0.06957921  0.37603342     0.11900
H389        H  0.37036027  0.04852956  0.39860159     0.08200
C390        C  0.40444688  0.05739804  0.43025189    -0.10900
C391        C  0.41723015  0.04422775  0.44268370    -0.10200
C392        C  0.45189623  0.05786290  0.44461978    -0.01100
C393        C  0.47351672  0.08530498  0.43410488    -0.11300
C394        C  0.46075439  0.09815114  0.42149438    -0.09700
H395        H  0.37761144  0.04651288  0.42922397     0.08200
H396        H  0.39995721  0.02323647  0.45072041     0.11900
H397        H  0.50035669  0.09617163  0.43519398     0.11700
H398        H  0.47817007  0.11842425  0.41312627     0.08200
C399        C  0.07850346  0.18336592  0.89346318    -0.10900
C400        C  0.10019925  0.18263040  0.90633730     0.06300
C401        C  0.13443726  0.20638799  0.90540192    -0.09600
C402        C  0.14652764  0.23065231  0.89206991    -0.11300
C403        C  0.12454689  0.23186482  0.87958412    -0.01100
C404        C  0.09049033  0.20788092  0.88034129    -0.10200
C405        C  0.08689471  0.15708075  0.92060486     0.06300
H406        H  0.15175882  0.20674097  0.91520730     0.08200
H407        H  0.17287868  0.24913136  0.89188328     0.11700
H408        H  0.07307404  0.20811284  0.87078340     0.11900
H409        H  0.05215947  0.16491466  0.89349166     0.08200
C410        C  0.05529278  0.14691567  0.92803895    -0.10900
C411        C  0.04145719  0.12110864  0.94043383    -0.10200
C412        C  0.05900434  0.10499934  0.94581582    -0.01100
C413        C  0.09123809  0.11611493  0.93900259    -0.11300
C414        C  0.10501796  0.14184794  0.92649703    -0.09700
H415        H  0.04103519  0.15872043  0.92415249     0.08200
H416        H  0.01670825  0.11338244  0.94554454     0.11900
H417        H  0.10544003  0.10425664  0.94291135     0.11700
H418        H  0.12934220  0.14895129  0.92098601     0.08200
C419        C  0.32026653  0.38944356  0.89026169    -0.10900
C420        C  0.32462448  0.41541634  0.90168350     0.06300
C421        C  0.30310476  0.42863512  0.90009012    -0.09600
C422        C  0.27741603  0.41577345  0.88757902    -0.11300
C423        C  0.27246807  0.38917652  0.87653685    -0.01100
C424        C  0.29433167  0.37633077  0.87786926    -0.10200
C425        C  0.35100233  0.42823017  0.91548481     0.06300
H426        H  0.30548540  0.44829494  0.90886391     0.08200
H427        H  0.26074299  0.42594861  0.88696535     0.11700
H428        H  0.29121580  0.35594838  0.86944234     0.11900
H429        H  0.33684691  0.37917140  0.89093669     0.08200
C430        C  0.35817735  0.40627291  0.92488617    -0.10900
C431        C  0.38283752  0.41832840  0.93798327    -0.10200
C432        C  0.40067227  0.45256472  0.94203479    -0.01100
C433        C  0.39331105  0.47447437  0.93274879    -0.11300
C434        C  0.36883573  0.46245201  0.91956619    -0.09700
H435        H  0.34446828  0.37969328  0.92226749     0.08200
H436        H  0.38793204  0.40081445  0.94492276     0.11900
H437        H  0.40688200  0.50103895  0.93543198     0.11700
H438        H  0.36423582  0.48005979  0.91237926     0.08200
C439        C  0.10968311  0.42447479  0.89241351    -0.10900
C440        C  0.08394631  0.40273095  0.90386649     0.06300
C441        C  0.07085671  0.36812607  0.90200100    -0.09600
C442        C  0.08384342  0.35563425  0.88927640    -0.11300
C443        C  0.11042078  0.37751380  0.87832986    -0.01100
C444        C  0.12294976  0.41201770  0.87987587    -0.10200
C445        C  0.07139044  0.41624924  0.91791216     0.06300
H446        H  0.05126853  0.35071554  0.91071858     0.08200
H447        H  0.07383865  0.32890723  0.88842180     0.11700
H448        H  0.14317932  0.42942839  0.87145911     0.11900
H449        H  0.11971747  0.45120476  0.89317922     0.08200
C450        C  0.09354119  0.44577338  0.92694138    -0.10900
C451        C  0.08175464  0.45922651  0.93975092    -0.10200
C452        C  0.04760206  0.44326056  0.94396482    -0.01100
C453        C  0.02553922  0.41324069  0.93532104    -0.11300
C454        C  0.03728851  0.39995247  0.92236875    -0.09700
H455        H  0.12007686  0.45851230  0.92413991     0.08200
H456        H  0.09939430  0.48226429  0.94627612     0.11900
H457        H  0.99902475  0.40045723  0.93821041     0.11700
H458        H  0.01951584  0.37736692  0.91554505     0.08200
C459        C  0.45514080  0.24877103  0.76013633    -0.10900
C460        C  0.46161982  0.23121601  0.77330455     0.06300
C461        C  0.43607921  0.19893155  0.77793285    -0.09600
C462        C  0.40530952  0.18404373  0.76906743    -0.11300
C463        C  0.39953410  0.20110710  0.75540163    -0.01100
C464        C  0.42428407  0.23400568  0.75142361    -0.10200
C465        C  0.49479876  0.24652560  0.78223684     0.06300
H466        H  0.44029359  0.18473282  0.78801087     0.08200
H467        H  0.38657088  0.15867571  0.77234219     0.11700
H468        H  0.42008873  0.24788354  0.74113916     0.11900
H469        H  0.47396892  0.27391430  0.75655633     0.08200
C470        C  0.02468559  0.26463858  0.77255716    -0.10900
C471        C  0.05582647  0.27905096  0.78113799    -0.10200
C472        C  0.05765428  0.27575499  0.79959391    -0.01100
C473        C  0.02765441  0.25746747  0.80917712    -0.11300
C474        C  0.99672646  0.24305279  0.80063195    -0.09700
H475        H  0.02398892  0.26739921  0.75831236     0.08200
H476        H  0.07838347  0.29291841  0.77336278     0.11900
H477        H  0.02794361  0.25441066  0.82341692     0.11700
H478        H  0.97422483  0.22963251  0.80850678     0.08200
C479        C  0.24007906  0.47435501  0.77250742    -0.10900
C480        C  0.25004796  0.00419808  0.78209360     0.06300
C481        C  0.24317298  0.50212190  0.80029279    -0.09600
C482        C  0.22735415  0.47125192  0.80887612    -0.11300
C483        C  0.21779927  0.44143470  0.79945190    -0.01100
C484        C  0.22394640  0.44329810  0.78109841    -0.10200
C485        C  0.26846977  0.03731226  0.77325183     0.06300
H486        H  0.25071855  0.02458460  0.80808019     0.08200
H487        H  0.22293807  0.47085602  0.82302427     0.11700
H488        H  0.21683383  0.42086868  0.77345137     0.11900
H489        H  0.24472983  0.47512971  0.75836852     0.08200
C490        C  0.29447752  0.04404059  0.76130769    -0.10900
C491        C  0.31149285  0.07486719  0.75271601    -0.10200
C492        C  0.30246835  0.09941506  0.75561326    -0.01100
C493        C  0.27744845  0.09336855  0.76805203    -0.11300
C494        C  0.26057230  0.06256217  0.77681284    -0.09700
H495        H  0.30167029  0.02542841  0.75861807     0.08200
H496        H  0.33117296  0.07926470  0.74339873     0.11900
H497        H  0.27006934  0.11194295  0.77043779     0.11700
H498        H  0.24065437  0.05810287  0.78597012     0.08200
C499        C  0.23431772  0.25870152  0.77054467    -0.10900
C500        C  0.25255470  0.24671712  0.78000837     0.06300
C501        C  0.25572881  0.25129281  0.79845232    -0.09600
C502        C  0.24098249  0.26722679  0.80728639    -0.11300
C503        C  0.22258731  0.27916688  0.79795879    -0.01100
C504        C  0.21956588  0.27491107  0.77943364    -0.10200
C505        C  0.26814439  0.22925308  0.77088686     0.06300
H506        H  0.26918877  0.24198910  0.80615457     0.08200
H507        H  0.24393629  0.26999554  0.82155743     0.11700
H508        H  0.20565306  0.28385041  0.77185678     0.11900
H509        H  0.23173225  0.25579146  0.75626431     0.08200
C510        C  0.25067403  0.20528100  0.75768913    -0.10900
C511        C  0.26532463  0.18868924  0.74928816    -0.10200
C512        C  0.29802841  0.19629822  0.75361616    -0.01100
C513        C  0.31514015  0.21945560  0.76713761    -0.11300
C514        C  0.30038040  0.23582323  0.77567876    -0.09700
H515        H  0.22557387  0.19915678  0.75398076     0.08200
H516        H  0.25137837  0.17036475  0.73912504     0.11900
H517        H  0.34037191  0.22572489  0.77066148     0.11700
H518        H  0.31452257  0.25423541  0.78576483     0.08200
C519        C  0.02638450  0.26114729  0.69816028    -0.10900
C520        C  0.49622536  0.24801300  0.68858352     0.06300
C521        C  0.99764908  0.25152541  0.67005917    -0.09600
C522        C  0.02836277  0.26738518  0.66127502    -0.11300
C523        C  0.05864845  0.28033119  0.67074247    -0.01100
C524        C  0.05731387  0.27723692  0.68933596    -0.10200
C525        C  0.46323988  0.23015677  0.69770869     0.06300
H526        H  0.47495697  0.24140386  0.66228093     0.08200
H527        H  0.02825775  0.26915301  0.64694169     0.11700
H528        H  0.08009362  0.28696614  0.69703444     0.11900
H529        H  0.02604816  0.25911918  0.71249247     0.08200
C530        C  0.45762725  0.20703636  0.71123907    -0.10900
C531        C  0.42664220  0.19021560  0.71978963    -0.10200
C532        C  0.40085781  0.19676064  0.71532061    -0.01100
C533        C  0.40595690  0.21896713  0.70142986    -0.11300
C534        C  0.43685554  0.23552603  0.69270069    -0.09700
H535        H  0.47714793  0.20179007  0.71512617     0.08200
H536        H  0.42303466  0.17262594  0.73022935     0.11900
H537        H  0.38644265  0.22438941  0.69776948     0.11700
H538        H  0.44040488  0.25320915  0.68232908     0.08200
C539        C  0.30620991  0.05844835  0.69636582    -0.10900
C540        C  0.27245237  0.03444287  0.69933711     0.06300
C541        C  0.25315208  0.04275887  0.71042687    -0.09600
C542        C  0.26737341  0.07414161  0.71851760    -0.11300
C543        C  0.30121049  0.09771765  0.71580151    -0.01100
C544        C  0.32041531  0.08986455  0.70447941    -0.10200
C545        C  0.25711164  0.00138422  0.69033553     0.06300
H546        H  0.22698054  0.02511134  0.71271235     0.08200
H547        H  0.25214725  0.07986919  0.72720029     0.11700
H548        H  0.34665766  0.10760127  0.70242972     0.11900
H549        H  0.32181184  0.05269840  0.68801058     0.08200
C550        C  0.26453746  0.49939518  0.67238599    -0.10900
C551        C  0.24910752  0.46887911  0.66347676    -0.10200
C552        C  0.22595421  0.43938490  0.67218914    -0.01100
C553        C  0.21916234  0.44106221  0.69023594    -0.11300
C554        C  0.23451139  0.47185858  0.69917245    -0.09700
H555        H  0.28155994  0.52164170  0.66508743     0.08200
H556        H  0.25511195  0.46850891  0.64959980     0.11900
H557        H  0.20145871  0.41879413  0.69729695     0.17100
H558        H  0.22849329  0.97253986  0.71308162     0.08200
C559        C  0.29403380  0.24528010  0.70813816    -0.10900
C560        C  0.26967635  0.22699888  0.69525503     0.06300
C561        C  0.26311117  0.19456386  0.69097436    -0.09600
C562        C  0.27939172  0.18019101  0.70005711    -0.11300
C563        C  0.30252655  0.19805523  0.71350191    -0.01100
C564        C  0.31055489  0.23112039  0.71699118    -0.10200
C565        C  0.25143531  0.24198980  0.68636152     0.06300
H566        H  0.24456348  0.17992214  0.68103945     0.08200
H567        H  0.27291580  0.15469762  0.69712115     0.11700
H568        H  0.32888829  0.24564033  0.72704506     0.11900
H569        H  0.30025237  0.27057017  0.71140540     0.08200
C570        C  0.23946413  0.25987113  0.69619623    -0.10900
C571        C  0.22362122  0.27528975  0.68770839    -0.10200
C572        C  0.21968154  0.27340431  0.66917483    -0.01100
C573        C  0.23115354  0.25495463  0.65942843    -0.11300
C574        C  0.24667654  0.23935513  0.66791349    -0.09700
H575        H  0.24239124  0.26193258  0.71048839     0.08200
H576        H  0.21497625  0.28911796  0.69561259     0.11900
H577        H  0.22845073  0.25278106  0.64512853     0.11700
H578        H  0.25577950  0.22596192  0.65996789     0.08200
C579        C  0.06835780  0.18350426  0.57845533    -0.10900
C580        C  0.08915593  0.18043528  0.56587683     0.06300
C581        C  0.12364779  0.20286033  0.56620653    -0.09600
C582        C  0.13717098  0.22816204  0.57889027    -0.11300
C583        C  0.11631075  0.23168751  0.59124689    -0.01100
C584        C  0.08181115  0.20915524  0.59096924    -0.10200
C585        C  0.07493171  0.15364861  0.55253231     0.06300
H586        H  0.14012109  0.20064173  0.55672755     0.08200
H587        H  0.16384748  0.24542805  0.57877687     0.11700
H588        H  0.06528923  0.21140515  0.60040046     0.11900
H589        H  0.04164017  0.16642862  0.57837485     0.08200
C590        C  0.05258878  0.12086626  0.55778995    -0.10900
C591        C  0.03960448  0.09526575  0.54531282    -0.10200
C592        C  0.04857357  0.10200991  0.52731111    -0.01100
C593        C  0.07059740  0.13494584  0.52199884    -0.11300
C594        C  0.08382659  0.16058759  0.53456232    -0.09700
H595        H  0.04566847  0.11497311  0.57161154     0.08200
H596        H  0.02266448  0.07010650  0.54982759     0.11900
H597        H  0.07795034  0.14079768  0.50823032     0.11700
H598        H  0.10087994  0.18586448  0.53025799     0.08200
C599        C  0.30152315  0.42535294  0.56761760    -0.10900
C600        C  0.31822095  0.40776799  0.56355461     0.06300
C601        C  0.31023912  0.37848234  0.57288755    -0.09600
C602        C  0.28566062  0.36668755  0.58599335    -0.11300
C603        C  0.26887723  0.38421324  0.59015678    -0.01100
C604        C  0.27717283  0.41378696  0.58091533    -0.10200
C605        C  0.34502412  0.42056685  0.55016409     0.06300
H606        H  0.32287424  0.36457046  0.56990316     0.08200
H607        H  0.27972661  0.34376718  0.59281544     0.11700
H608        H  0.26449394  0.42769969  0.58375993     0.11900
H609        H  0.30766702  0.44822601  0.56067629     0.08200
C610        C  0.33979579  0.42883052  0.53297473    -0.10900
C611        C  0.36567975  0.44109521  0.52046625    -0.10200
C612        C  0.39720660  0.44578863  0.52516525    -0.01100
C613        C  0.40213302  0.43726583  0.54236662    -0.11300
C614        C  0.37626597  0.42462183  0.55469397    -0.09700
H615        H  0.31569732  0.42565632  0.52924737     0.08200
H616        H  0.36132406  0.44765670  0.50733412     0.11900
H617        H  0.42615788  0.44058091  0.54637698     0.11700
H618        H  0.38082824  0.41858291  0.56791620     0.08200
C619        C  0.07588880  0.41338679  0.53287074    -0.10900
C620        C  0.08329168  0.42628328  0.55023517     0.06300
C621        C  0.07753423  0.45233632  0.55498110    -0.09600
C622        C  0.06393532  0.46484030  0.54274537    -0.11300
C623        C  0.05618311  0.45188471  0.52539106    -0.01100
C624        C  0.06271943  0.42633205  0.52045879    -0.10200
C625        C  0.09611698  0.41219831  0.56366507     0.06300
H626        H  0.08281253  0.46247921  0.56832018     0.08200
H627        H  0.05933962  0.48465950  0.54693972     0.11700
H628        H  0.05694402  0.41588564  0.50719730     0.11900
H629        H  0.08033026  0.39334302  0.52893932     0.08200
C630        C  0.07955278  0.37769896  0.56677982    -0.10900
C631        C  0.09071415  0.36453516  0.58007966    -0.10200
C632        C  0.11894211  0.38560724  0.59034548    -0.01100
C633        C  0.13559073  0.42015905  0.58712418    -0.11300
C634        C  0.12411815  0.43333844  0.57399495    -0.09700
H635        H  0.05766403  0.36100972  0.55910339     0.08200
H636        H  0.07750188  0.33778289  0.58214326     0.11900
H637        H  0.15751056  0.43701468  0.59472758     0.11700
H638        H  0.13728443  0.46005724  0.57178134     0.08200
Zn639      Zn  0.19091385  0.81077985  0.62374421     1.49700
Zn640      Zn  0.19093428  0.87887610  0.62471964     1.49400
Zn641      Zn  0.12255547  0.81119763  0.62422326     1.49100
Zn642      Zn  0.16772906  0.83136223  0.65976767     1.49500
O643        O  0.16801873  0.83307839  0.63346181    -1.84200
O644        O  0.23009476  0.84074331  0.60868723    -0.74800
O645        O  0.16137800  0.88965292  0.60988099    -0.74600
O646        O  0.11213275  0.77076225  0.60985895    -0.74100
O647        O  0.22925206  0.88825416  0.60856796    -0.74800
O648        O  0.16126891  0.77319874  0.60786247    -0.74400
O649        O  0.11471885  0.84087695  0.60779083    -0.75000
O650        O  0.11892126  0.80812357  0.66898061    -0.74400
O651        O  0.20877494  0.91025060  0.64507166    -0.75100
O652        O  0.08962977  0.79664424  0.64396934    -0.74500
O653        O  0.19341917  0.87948124  0.66968169    -0.75000
O654        O  0.19074755  0.80498590  0.66825425    -0.74900
O655        O  0.20621147  0.79197658  0.64288078    -0.74700
C656        C  0.24165373  0.87055065  0.60332842     0.77100
C657        C  0.13229267  0.87143981  0.60347436     0.77600
C658        C  0.13056448  0.75980315  0.60379413     0.76500
C659        C  0.09090672  0.79609333  0.66083050     0.76900
C660        C  0.20836063  0.90788657  0.66191270     0.78100
C661        C  0.20463669  0.79106347  0.65973903     0.77100
C662        C  0.33454335  0.66393069  0.71749625     0.45400
H663        H  0.33497137  0.66321816  0.70275354    -0.03600
C664        C  0.33340798  0.66534002  0.75216219     0.45500
H665        H  0.33290681  0.66589723  0.76690671    -0.03600
C666        C  0.31722688  0.62916087  0.72614419    -0.17300
C667        C  0.36952484  0.68233531  0.72599376    -0.17100
C668        C  0.31617289  0.68145295  0.72498155    -0.17400
C669        C  0.31700635  0.62988688  0.74438552    -0.17400
C670        C  0.36889806  0.68352858  0.74425945    -0.17000
C671        C  0.31508500  0.68166278  0.74325801    -0.17300
Zn672      Zn  0.19326263  0.81214500  0.84492860     1.49700
Zn673      Zn  0.16684799  0.83245883  0.80978270     1.49400
Zn674      Zn  0.12236697  0.80643464  0.84565544     1.49100
Zn675      Zn  0.18760518  0.87727087  0.84560312     1.49500
O676        O  0.16749075  0.83209987  0.83614296    -1.84200
O677        O  0.20808872  0.79511131  0.82477262    -0.74800
O678        O  0.11785885  0.80774646  0.80091252    -0.74600
O679        O  0.11621652  0.76789548  0.86055521    -0.74100
O680        O  0.19152277  0.80859782  0.79995310    -0.74800
O681        O  0.16710779  0.77432002  0.86188295    -0.74400
O682        O  0.08916655  0.78930821  0.82606482    -0.75000
O683        O  0.15575382  0.88421994  0.86053506    -0.74400
O684        O  0.19014340  0.88131228  0.80081384    -0.75100
O685        O  0.11057357  0.83406679  0.86150115    -0.74500
O686        O  0.20258002  0.91024214  0.82600406    -0.75000
O687        O  0.22748730  0.88872117  0.86093944    -0.74900
O688        O  0.23395986  0.84446576  0.85835898    -0.74700
C689        C  0.20640121  0.79516716  0.80792225     0.77100
C690        C  0.09004849  0.79176475  0.80923096     0.77600
C691        C  0.13656175  0.75925306  0.86653304     0.76500
C692        C  0.12629778  0.86462958  0.86605615     0.76900
C693        C  0.20255089  0.90917386  0.80913563     0.78100
C694        C  0.24336470  0.87346257  0.86446437     0.77100
Zn695      Zn  0.37943949  0.69291749  0.34419163     1.49700
Zn696      Zn  0.33304424  0.66830657  0.30880045     1.49400
Zn697      Zn  0.31218455  0.62419498  0.34477065     1.49100
Zn698      Zn  0.31057392  0.69191149  0.34412598     1.49500
O699        O  0.33380005  0.66931491  0.33514220    -1.84200
O700        O  0.41149899  0.70568209  0.32419676    -0.74800
O701        O  0.30676451  0.61936449  0.30005127    -0.74600
O702        O  0.34328518  0.61510013  0.35938744    -0.74100
O703        O  0.38146552  0.69048049  0.29932473    -0.74800
O704        O  0.38880456  0.66487203  0.36102651    -0.74400
O705        O  0.29262931  0.59049468  0.32526603    -0.75000
O706        O  0.27162182  0.66253994  0.35971753    -0.74400
O707        O  0.31009226  0.69393951  0.29926335    -0.75100
O708        O  0.27535634  0.61658099  0.36151827    -0.74500
O709        O  0.29479511  0.70856355  0.32418075    -0.75000
O710        O  0.34033239  0.73153024  0.35913209    -0.74900
O711        O  0.38968999  0.73443441  0.35774190    -0.74700
C712        C  0.40966850  0.70377993  0.30734738     0.77100
C713        C  0.29217007  0.59152046  0.30837961     0.77600
C714        C  0.37238805  0.63432377  0.36553430     0.76500
C715        C  0.26185645  0.63366467  0.36609901     0.76900
C716        C  0.29622015  0.70832598  0.30732179     0.78100
C717        C  0.37111305  0.74569030  0.36323281     0.77100
C718        C  0.16595892  0.83584754  0.21651859     0.45400
H719        H  0.16600934  0.83626519  0.20176603    -0.03600
C720        C  0.16579064  0.83479556  0.25120400     0.45500
H721        H  0.16564309  0.83427243  0.26595552    -0.03600
C722        C  0.13081961  0.81700513  0.22461862    -0.17300
C723        C  0.18457718  0.81907626  0.22441616    -0.17100
C724        C  0.18237675  0.87067430  0.22506877    -0.17400
C725        C  0.13068238  0.81686855  0.24287048    -0.17400
C726        C  0.18410207  0.81804218  0.24267664    -0.17000
C727        C  0.18276760  0.87023273  0.24334551    -0.17300
Zn728      Zn  0.28581426  0.64473397  0.14139820     1.49700
Zn729      Zn  0.33137060  0.66662894  0.10762003     1.49400
Zn730      Zn  0.35619255  0.71368120  0.14087970     1.49100
Zn731      Zn  0.35534702  0.64319516  0.14063865     1.49500
O732        O  0.33223871  0.66706169  0.13309247    -1.84200
O733        O  0.25245391  0.62531864  0.12107351    -0.74800
O734        O  0.34736070  0.71094857  0.09744359    -0.74600
O735        O  0.32557326  0.72405686  0.15548563    -0.74100
O736        O  0.28662195  0.63778594  0.09812524    -0.74800
O737        O  0.27649116  0.67704079  0.15503520    -0.74400
O738        O  0.37116525  0.74573995  0.11995941    -0.75000
O739        O  0.39620731  0.67400091  0.15513840    -0.74400
O740        O  0.35904734  0.64987747  0.09717684    -0.75100
O741        O  0.39727321  0.72272846  0.15494094    -0.74500
O742        O  0.37215029  0.62768268  0.11960391    -0.75000
O743        O  0.32381518  0.60258822  0.15502724    -0.74900
O744        O  0.27707128  0.60541409  0.15663218    -0.74700
C745        C  0.25741104  0.62368204  0.10455543     0.77100
C746        C  0.36408506  0.74034581  0.10350135     0.77600
C747        C  0.29459716  0.70760948  0.15948439     0.76500
C748        C  0.41010951  0.70483828  0.15933329     0.76900
C749        C  0.37254857  0.63376086  0.10307422     0.78100
C750        C  0.29370301  0.59088029  0.16027033     0.77100
Zn751      Zn  0.04722368  0.52050463  0.97706107     1.49700
Zn752      Zn  0.47949961  0.52472182  0.97634829     1.49400
Zn753      Zn  0.47566814  0.95298366  0.97693891     1.49100
Zn754      Zn  0.99959770  0.49986961  0.01026976     1.49500
O755        O  0.00057255  0.49960218  0.98483948    -1.84200
O756        O  0.05938210  0.56159390  0.96257456    -0.74800
O757        O  0.44151571  0.99592849  0.95987140    -0.74600
O758        O  0.00467586  0.94186997  0.96193992    -0.74100
O759        O  0.01261979  0.56434816  0.96218849    -0.74800
O760        O  0.05375746  0.98876697  0.96147595    -0.74400
O761        O  0.43783717  0.94610894  0.96116895    -0.75000
O762        O  0.47129592  0.95497265  0.02025144    -0.74400
O763        O  0.46226376  0.54163592  0.99647347    -0.75100
O764        O  0.45712626  0.92027410  0.99739129    -0.74500
O765        O  0.48234301  0.52799382  0.01973611    -0.75000
O766        O  0.04410803  0.51642006  0.02050199    -0.74900
O767        O  0.07933663  0.53333976  0.99779338    -0.74700
C768        C  0.04300509  0.57570599  0.95765538     0.77100
C769        C  0.42790082  0.96543298  0.95514694     0.77600
C770        C  0.03479520  0.95863186  0.95662451     0.76500
C771        C  0.45692527  0.92561328  0.01397428     0.76900
C772        C  0.46711774  0.54193405  0.01314538     0.78100
C773        C  0.07354728  0.52926847  0.01440910     0.77100
Zn774      Zn  0.00076339  0.00001171  0.50994666     1.49700
Zn775      Zn  0.02434211  0.97826096  0.47606045     1.49400
Zn776      Zn  0.45507107  0.98045235  0.47604104     1.49100
Zn777      Zn  0.02526357  0.54863435  0.47694746     1.49500
O778        O  0.00136744  0.00179819  0.48446252    -1.84200
O779        O  0.02649438  0.97986751  0.51953746    -0.74800
O780        O  0.49388886  0.94060531  0.45994900    -0.74600
O781        O  0.42133019  0.96191618  0.49621058    -0.74100
O782        O  0.04080529  0.96048390  0.49620516    -0.74800
O783        O  0.45502982  0.97420209  0.51940950    -0.74400
O784        O  0.44699940  0.94325076  0.45929238    -0.75000
O785        O  0.49617506  0.55897899  0.46131871    -0.74400
O786        O  0.06439454  0.50949135  0.46147314    -0.75100
O787        O  0.44664835  0.51267656  0.46200058    -0.74500
O788        O  0.06568025  0.55821305  0.46258329    -0.75000
O789        O  0.04015348  0.58018904  0.49788822    -0.74900
O790        O  0.02033628  0.54485971  0.52047415    -0.74700
C791        C  0.04046862  0.96461928  0.51293050     0.77100
C792        C  0.46439227  0.93032134  0.45415244     0.77600
C793        C  0.42588288  0.96120879  0.51285373     0.76500
C794        C  0.46555903  0.54252009  0.45675391     0.76900
C795        C  0.07772035  0.54019733  0.45723726     0.78100
C796        C  0.03563991  0.57440204  0.51448058     0.77100
C797        C  0.21021098  0.58243591  0.06274775    -0.10900
C798        C  0.17806005  0.57652358  0.06677578     0.06300
C799        C  0.17145968  0.58421532  0.08388298    -0.09600
C800        C  0.19691574  0.59851131  0.09654379    -0.11300
C801        C  0.22934784  0.60559619  0.09219706    -0.01100
C802        C  0.23559358  0.59690232  0.07529185    -0.10200
C803        C  0.15176401  0.56312689  0.05301464     0.06300
H804        H  0.14691200  0.58016328  0.08729774     0.08200
H805        H  0.19152169  0.60506546  0.10946396     0.11700
H806        H  0.26029973  0.60163661  0.07165175     0.11900
H807        H  0.21581973  0.57604220  0.04983909     0.08200
C808        C  0.15927853  0.57422836  0.03532041    -0.10900
C809        C  0.13409222  0.56250101  0.02249791    -0.10200
C810        C  0.10100981  0.53977129  0.02723261    -0.01100
C811        C  0.09371261  0.52812159  0.04481407    -0.11300
C812        C  0.11883570  0.53960210  0.05754824    -0.09700
H813        H  0.18443648  0.59267093  0.03149652     0.08200
H814        H  0.14030742  0.57196983  0.00906071     0.11900
H815        H  0.06844140  0.51026430  0.04880387     0.11700
H816        H  0.11245478  0.53009457  0.07096968     0.08200
C817        C  0.37639377  0.78701582  0.06061837    -0.10900
C818        C  0.40036570  0.81961088  0.06541511     0.06300
C819        C  0.41148736  0.82644070  0.08312741    -0.09600
C820        C  0.39919881  0.80090749  0.09574228    -0.11300
C821        C  0.37572144  0.76816730  0.09080206    -0.01100
C822        C  0.36422818  0.76157833  0.07315373    -0.10200
C823        C  0.41374564  0.84631701  0.05191980     0.06300
H824        H  0.43022371  0.85136227  0.08713145     0.08200
H825        H  0.40858528  0.80663815  0.10921713     0.11700
H826        H  0.34592288  0.73662579  0.06893800     0.11900
H827        H  0.36691856  0.78118285  0.04716095     0.08200
C828        C  0.42140294  0.84022920  0.03470508    -0.10900
C829        C  0.43452040  0.86570397  0.02206939    -0.10200
C830        C  0.44044322  0.89768476  0.02652702    -0.01100
C831        C  0.43228679  0.90356573  0.04364121    -0.11300
C832        C  0.41897953  0.87811792  0.05618583    -0.09700
H833        H  0.41795211  0.81598763  0.03113784     0.08200
H834        H  0.44092306  0.86066359  0.00902477     0.11900
H835        H  0.43635632  0.92796875  0.04738765     0.11700
H836        H  0.41269080  0.88330700  0.06922325     0.08200
C837        C  0.41470270  0.57525726  0.03375158    -0.10900
C838        C  0.42884024  0.58407514  0.05085409     0.06300
C839        C  0.45652743  0.58048426  0.05495681    -0.09600
C840        C  0.46926691  0.56753626  0.04246262    -0.11300
C841        C  0.45483749  0.55815926  0.02550182    -0.01100
C842        C  0.42773813  0.56256132  0.02112779    -0.10200
C843        C  0.41491760  0.59703863  0.06441465     0.06300
H844        H  0.46845738  0.58777676  0.06783700     0.08200
H845        H  0.49042964  0.56470922  0.04613643     0.11700
H846        H  0.41601046  0.55522307  0.00819728     0.11900
H847        H  0.39309300  0.57742769  0.03026495     0.08200
C848        C  0.40370717  0.61906588  0.05950353    -0.10900
C849        C  0.39047026  0.63122298  0.07217395    -0.10200
C850        C  0.38820268  0.62174169  0.09010211    -0.01100
C851        C  0.39981420  0.60006269  0.09511786    -0.11300
C852        C  0.41297319  0.58773517  0.08236998    -0.09700
H853        H  0.40545128  0.62719833  0.04587027     0.08200
H854        H  0.38190447  0.64805906  0.06785011     0.11900
H855        H  0.39822567  0.59221054  0.10879674     0.11700
H856        H  0.42107839  0.57045321  0.08652248     0.08200
C857        C  0.04640696  0.75013770  0.20770927    -0.10900
C858        C  0.03894896  0.76761902  0.19491334     0.06300
C859        C  0.06312937  0.80095591  0.19115631    -0.09600
C860        C  0.09349899  0.81669294  0.20039419    -0.11300
C861        C  0.10016383  0.79948085  0.21360292    -0.01100
C862        C  0.07675914  0.76584230  0.21686126    -0.10200
C863        C  0.00580173  0.75138000  0.18588139     0.06300
H864        H  0.05850844  0.81494781  0.18113519     0.08200
H865        H  0.11135840  0.84260510  0.19761540     0.11700
H866        H  0.08168970  0.75192527  0.22680207     0.11900
H867        H  0.02838823  0.72457297  0.21105269     0.08200
C868        C  0.98988478  0.71743025  0.18109716    -0.10900
C869        C  0.45858330  0.70217059  0.17278551    -0.10200
C870        C  0.44243665  0.72049367  0.16902218    -0.01100
C871        C  0.45824906  0.75436852  0.17389271    -0.11300
C872        C  0.48948486  0.76958847  0.18222799    -0.09700
H873        H  0.00185828  0.70272499  0.18349196     0.08200
H874        H  0.44726285  0.67609679  0.16910309     0.11900
H875        H  0.44655685  0.76924230  0.17120169     0.11700
H876        H  0.50068251  0.79559014  0.18602023     0.08200
C877        C  0.23373652  0.93762073  0.19144738    -0.10900
C878        C  0.22684806  0.96311577  0.19615769     0.06300
C879        C  0.20341024  0.95693906  0.20966613    -0.09600
C880        C  0.18786570  0.92636934  0.21851244    -0.11300
C881        C  0.19599191  0.90161110  0.21434612    -0.01100
C882        C  0.21839849  0.90711847  0.20046545    -0.10200
C883        C  0.24425491  0.99614906  0.18720205     0.06300
H884        H  0.19766593  0.97602924  0.21373321     0.08200
H885        H  0.17008473  0.92235397  0.22894920     0.11700
H886        H  0.22479300  0.88820995  0.19696876     0.11900
H887        H  0.25110461  0.94130370  0.18084479     0.08200
C888        C  0.27806767  0.51081320  0.18263068    -0.10900
C889        C  0.29439945  0.54188997  0.17421810    -0.10200
C890        C  0.27713342  0.55900355  0.17022609    -0.01100
C891        C  0.24324370  0.54443744  0.17497601    -0.11300
C892        C  0.22690461  0.51333738  0.18331813    -0.09700
H893        H  0.29217662  0.49845599  0.18570090     0.08200
H894        H  0.32049812  0.55237198  0.17072221     0.11900
H895        H  0.22909843  0.55679321  0.17197727     0.11700
H896        H  0.20084821  0.00269658  0.18650875     0.08200
C897        C  0.28283073  0.77557786  0.18090053    -0.10900
C898        C  0.24877567  0.75817522  0.18552908     0.06300
C899        C  0.23010744  0.72379209  0.18184491    -0.09600
C900        C  0.24506075  0.70727539  0.17365638    -0.11300
C901        C  0.27909481  0.72471705  0.16898775    -0.01100
C902        C  0.29780558  0.75905843  0.17276000    -0.10200
C903        C  0.23298925  0.77563131  0.19451932     0.06300
H904        H  0.20397593  0.70949839  0.18550169     0.08200
H905        H  0.22988430  0.68082999  0.17093186     0.11700
H906        H  0.32399748  0.77335017  0.16921262     0.11900
H907        H  0.29785896  0.80213704  0.18333199     0.08200
C908        C  0.25065336  0.80007590  0.20751072    -0.10900
C909        C  0.23536680  0.81523290  0.21665768    -0.10200
C910        C  0.20195716  0.80597380  0.21320389    -0.01100
C911        C  0.18461623  0.78266337  0.19977143    -0.11300
C912        C  0.19994500  0.76752037  0.19053764    -0.09700
H913        H  0.27599192  0.80677652  0.21102911     0.08200
H914        H  0.24933024  0.83354610  0.22682331     0.11900
H915        H  0.15885835  0.77533567  0.19686580     0.11700
H916        H  0.18585455  0.74928310  0.18037409     0.08200
C917        C  0.24637515  0.95657119  0.25967029    -0.10900
C918        C  0.22772081  0.96338084  0.27205487     0.06300
C919        C  0.19488824  0.93804668  0.27599768    -0.09600
C920        C  0.18073220  0.90709452  0.26728451    -0.11300
C921        C  0.19908596  0.90097109  0.25445162    -0.01100
C922        C  0.23230073  0.92564990  0.25107092    -0.10200
C923        C  0.24278519  0.99659125  0.28099668     0.06300
H924        H  0.17983044  0.94250429  0.28545000     0.08200
H925        H  0.15503065  0.88844693  0.27002394     0.11700
H926        H  0.24705284  0.92126753  0.24136958     0.11900
H927        H  0.27193524  0.97518713  0.25663925     0.08200
C928        C  0.23828950  0.49866158  0.29927980    -0.10900
C929        C  0.25390981  0.52952241  0.30796484    -0.10200
C930        C  0.27429736  0.55925989  0.29859339    -0.01100
C931        C  0.27799715  0.55734935  0.28017257    -0.11300
C932        C  0.26252385  0.52631251  0.27147961    -0.09700
H933        H  0.22311358  0.97640751  0.30699184     0.08200
H934        H  0.25026909  0.52998258  0.32214660     0.11900
H935        H  0.29336942  0.57972627  0.27254481     0.11700
H936        H  0.26605760  0.52555794  0.25730534     0.08200
C937        C  0.50197364  0.74116964  0.29758584    -0.10900
C938        C  0.00385666  0.74921515  0.27952822     0.06300
C939        C  0.47408586  0.74068393  0.27029249    -0.09600
C940        C  0.44316644  0.72499940  0.27908489    -0.11300
C941        C  0.44152591  0.71787672  0.29730433    -0.01100
C942        C  0.47128004  0.72582652  0.30636471    -0.10200
C943        C  0.03691848  0.76726077  0.27058546     0.06300
H944        H  0.97477696  0.74624595  0.25628850     0.08200
H945        H  0.42072705  0.71918453  0.27174722     0.11700
H946        H  0.47097021  0.72056506  0.32039472     0.11900
H947        H  0.52441569  0.74764041  0.30509245     0.08200
C948        C  0.04426600  0.79395500  0.25907272    -0.10900
C949        C  0.07534488  0.81102097  0.25068298    -0.10200
C950        C  0.09959336  0.80160453  0.25354771    -0.01100
C951        C  0.09281814  0.77565331  0.26540037    -0.11300
C952        C  0.06167662  0.75852275  0.27381943    -0.09700
H953        H  0.02601012  0.80172373  0.25661607     0.08200
H954        H  0.08029345  0.83119448  0.24164456     0.11900
H955        H  0.11114447  0.76787030  0.26761074     0.11700
H956        H  0.05666899  0.73794297  0.28255224     0.08200
C957        C  0.25996875  0.73661029  0.27012030    -0.10900
C958        C  0.24974243  0.75643064  0.27952356     0.06300
C959        C  0.25590465  0.76091398  0.29783489    -0.09600
C960        C  0.27133909  0.74561035  0.30661115    -0.11300
C961        C  0.28120252  0.72539726  0.29734716    -0.01100
C962        C  0.27569267  0.72135555  0.27893369    -0.10200
C963        C  0.23212064  0.77192977  0.27047541     0.06300
H964        H  0.24805647  0.77566835  0.30551057     0.08200
H965        H  0.27529213  0.74947782  0.32079109     0.11700
H966        H  0.28304604  0.70604476  0.27140986     0.11900
H967        H  0.25590856  0.73300927  0.25593619     0.08200
C968        C  0.23933963  0.80455061  0.27483342    -0.10900
C969        C  0.22273675  0.81907898  0.26631029    -0.10200
C970        C  0.19880373  0.80136643  0.25321481    -0.01100
C971        C  0.19071401  0.76843399  0.24926624    -0.11300
C972        C  0.20734647  0.75394173  0.25771471    -0.09700
H973        H  0.25840204  0.81913768  0.28454422     0.08200
H974        H  0.22941652  0.84455193  0.26947442     0.11900
H975        H  0.17192507  0.75415950  0.23936280     0.11700
H976        H  0.20066175  0.72855989  0.25434643     0.08200
C977        C  0.14987904  0.60266869  0.42911846    -0.10900
C978        C  0.15979543  0.58204212  0.42040693     0.06300
C979        C  0.14363208  0.54790123  0.42469465    -0.09600
C980        C  0.11774394  0.53457221  0.43709279    -0.11300
C981        C  0.10713217  0.55497651  0.44536255    -0.01100
C982        C  0.12373151  0.58925656  0.44140742    -0.10200
C983        C  0.18623947  0.59573634  0.40657177     0.06300
H984        H  0.15023953  0.53116548  0.41807222     0.08200
H985        H  0.10539430  0.50804279  0.43979626     0.11700
H986        H  0.11627266  0.60568764  0.44764625     0.11900
H987        H  0.16224270  0.62918787  0.42640989     0.08200
C988        C  0.18901780  0.62068108  0.39483385    -0.10900
C989        C  0.21345315  0.63295135  0.38157776    -0.10200
C990        C  0.23522151  0.62013598  0.37961968    -0.01100
C991        C  0.23242945  0.59519330  0.39128250    -0.11300
C992        C  0.20842173  0.58333984  0.40469906    -0.09700
H993        H  0.17198674  0.63038939  0.39569220     0.08200
H994        H  0.21510833  0.65221968  0.37275808     0.11900
H995        H  0.24930369  0.58529511  0.39028098     0.11700
H996        H  0.20750694  0.56468532  0.41372464     0.08200
C997        C  0.43287536  0.82085728  0.38980153    -0.10900
C998        C  0.41145311  0.82749145  0.40018005     0.06300
C999        C  0.37675925  0.80805994  0.39754337    -0.09600
C1000       C  0.36378274  0.78225519  0.38509038    -0.11300
C1001       C  0.38516128  0.77497405  0.37515251    -0.01100
C1002       C  0.41985439  0.79472365  0.37750512    -0.10200
C1003       C  0.42509954  0.85393946  0.41401767     0.06300
H1004       H  0.35948379  0.81207733  0.40547756     0.08200
H1005       H  0.33690730  0.76729949  0.38367526     0.11700
H1006       H  0.43694558  0.78982121  0.36994050     0.11900
H1007       H  0.45973907  0.83578864  0.39120710     0.08200
C1008       C  0.45323580  0.85982166  0.42404701    -0.10900
C1009       C  0.46586612  0.88444348  0.43718085    -0.10200
C1010       C  0.45037837  0.90342472  0.44073886    -0.01100
C1011       C  0.42211951  0.89741792  0.43084035    -0.11300
C1012       C  0.40975259  0.87310886  0.41755368    -0.09700
H1013       H  0.46528889  0.84509812  0.42193284     0.08200
H1014       H  0.48766008  0.88848013  0.44461722     0.11900
H1015       H  0.40989862  0.91195230  0.43312099     0.11700
H1016       H  0.38842302  0.86968433  0.40989036     0.08200
C1017       C  0.38332852  0.57513550  0.39593857    -0.10900
C1018       C  0.41257454  0.59705146  0.40528329     0.06300
C1019       C  0.42895479  0.63121412  0.40100782    -0.09600
C1020       C  0.41637575  0.64314184  0.38779071    -0.11300
C1021       C  0.38690728  0.62127028  0.37864754    -0.01100
C1022       C  0.37055958  0.58712247  0.38284665    -0.10200
C1023       C  0.42612207  0.58424983  0.41924807     0.06300
H1024       H  0.45120944  0.64892382  0.40809226     0.08200
H1025       H  0.42940700  0.66965705  0.38500070     0.11700
H1026       H  0.34781343  0.56961261  0.37604152     0.11900
H1027       H  0.37040254  0.54858855  0.39859627     0.08200
C1028       C  0.40451845  0.55746927  0.43022089    -0.10900
C1029       C  0.41729450  0.54429997  0.44265633    -0.10200
C1030       C  0.45195895  0.55794220  0.44460275    -0.01100
C1031       C  0.47358581  0.58539500  0.43409608    -0.11300
C1032       C  0.46083014  0.59823833  0.42147880    -0.09700
H1033       H  0.37768297  0.54657745  0.42918882     0.08200
H1034       H  0.40001672  0.52330381  0.45068767     0.11900
H1035       H  0.50042522  0.59627009  0.43519561     0.11700
H1036       H  0.47825141  0.61851567  0.41311601     0.08200
C1037       C  0.07853063  0.68354747  0.89356437    -0.10900
C1038       C  0.10028029  0.68281640  0.90640589     0.06300
C1039       C  0.13452613  0.70652217  0.90540876    -0.09600
C1040       C  0.14657351  0.73073162  0.89204841    -0.11300
C1041       C  0.12454280  0.73194044  0.87959417    -0.01100
C1042       C  0.09047672  0.70800791  0.88041389    -0.10200
C1043       C  0.08702146  0.65730882  0.92069569     0.06300
H1044       H  0.15189098  0.70687642  0.91518673     0.08200
H1045       H  0.17293466  0.74917200  0.89181447     0.11700
H1046       H  0.07301948  0.70823713  0.87088228     0.11900
H1047       H  0.05217694  0.66513227  0.89363895     0.08200
C1048       C  0.05546260  0.64719998  0.92817186    -0.10900
C1049       C  0.04163310  0.62138594  0.94056288    -0.10200
C1050       C  0.05914546  0.60521590  0.94590041    -0.01100
C1051       C  0.09135373  0.61629632  0.93905844    -0.11300
C1052       C  0.10512606  0.64203489  0.92655523    -0.09700
H1053       H  0.04122607  0.65904240  0.92431443     0.08200
H1054       H  0.01690920  0.61369406  0.94570065     0.11900
H1055       H  0.10553142  0.60439565  0.94293555     0.11700
H1056       H  0.12941972  0.64909834  0.92101440     0.08200
C1057       C  0.32025761  0.88927375  0.89015553    -0.10900
C1058       C  0.32466526  0.91527624  0.90156797     0.06300
C1059       C  0.30317946  0.92853465  0.89997523    -0.09600
C1060       C  0.27748384  0.91569330  0.88746996    -0.11300
C1061       C  0.27249169  0.88907570  0.87643325    -0.01100
C1062       C  0.29431305  0.87617983  0.87776834    -0.10200
C1063       C  0.35105604  0.92808446  0.91536137     0.06300
H1064       H  0.30559248  0.94821239  0.90874456     0.08200
H1065       H  0.26083980  0.92590281  0.88685685     0.11700
H1066       H  0.29115673  0.85577497  0.86934825     0.11900
H1067       H  0.33680730  0.87896565  0.89083288     0.08200
C1068       C  0.35820900  0.90612114  0.92477243    -0.10900
C1069       C  0.38285096  0.91817250  0.93787976    -0.10200
C1070       C  0.40068404  0.95240866  0.94193212    -0.01100
C1071       C  0.39336054  0.97432596  0.93262732    -0.11300
C1072       C  0.36890826  0.96230974  0.91943366    -0.09700
H1073       H  0.34448940  0.87954065  0.92215836     0.08200
H1074       H  0.38792339  0.90065500  0.94483143     0.11900
H1075       H  0.40693897  0.00089209  0.93530737     0.11700
H1076       H  0.36433230  0.97992205  0.91223645     0.08200
C1077       C  0.10997615  0.92448082  0.89259786    -0.10900
C1078       C  0.08411882  0.90269702  0.90397932     0.06300
C1079       C  0.07090733  0.86809182  0.90202356    -0.09600
C1080       C  0.08387344  0.85562944  0.88927227    -0.11300
C1081       C  0.11054798  0.87753681  0.87838620    -0.01100
C1082       C  0.12321687  0.91204972  0.88003044    -0.10200
C1083       C  0.07152842  0.91616764  0.91802987     0.06300
H1084       H  0.05122414  0.85065082  0.91068681     0.08200
H1085       H  0.07376188  0.82889439  0.88834487     0.11700
H1086       H  0.14353083  0.92948645  0.87166587     0.11900
H1087       H  0.12011245  0.95121878  0.89343711     0.08200
C1088       C  0.09367747  0.94556969  0.92715251    -0.10900
C1089       C  0.08184941  0.95900678  0.93994886    -0.10200
C1090       C  0.04765536  0.94313974  0.94405429    -0.01100
C1091       C  0.02559174  0.91322751  0.93532361    -0.11300
C1092       C  0.03738344  0.89996033  0.92238417    -0.09700
H1093       H  0.12024049  0.95823133  0.92442816     0.08200
H1094       H  0.09948621  0.98195715  0.94654610     0.11900
H1095       H  0.99904619  0.90052612  0.93812860     0.11700
H1096       H  0.01961451  0.87747286  0.91548559     0.08200
C1097       C  0.45496979  0.74882685  0.76020210    -0.10900
C1098       C  0.46150597  0.73124331  0.77332807     0.06300
C1099       C  0.43602528  0.69890746  0.77791754    -0.09600
C1100       C  0.40525807  0.68399666  0.76905070    -0.11300
C1101       C  0.39943152  0.70109180  0.75542267    -0.01100
C1102       C  0.42411630  0.73403633  0.75148690    -0.10200
C1103       C  0.49468897  0.74657052  0.78225133     0.06300
H1104       H  0.44028934  0.68468893  0.78796329     0.08200
H1105       H  0.38656891  0.65859252  0.77228981     0.11700
H1106       H  0.41987701  0.74793012  0.74122912     0.11900
H1107       H  0.47375320  0.77400576  0.75665423     0.08200
C1108       C  0.02460099  0.76472268  0.77256130    -0.10900
C1109       C  0.05574526  0.77913986  0.78113648    -0.10200
C1110       C  0.05758375  0.77580956  0.79958854    -0.01100
C1111       C  0.02759280  0.75748614  0.80917392    -0.11300
C1112       C  0.99666113  0.74306173  0.80063343    -0.09700
H1113       H  0.02389199  0.76750945  0.75831880     0.08200
H1114       H  0.07829573  0.79303629  0.77336054     0.11900
H1115       H  0.02789238  0.75440280  0.82341141     0.11700
H1116       H  0.97416324  0.72960438  0.80850678     0.08200
C1117       C  0.24001201  0.97445533  0.77251710    -0.10900
C1118       C  0.25010478  0.50411758  0.78206252     0.06300
C1119       C  0.24310087  0.00216460  0.80032221    -0.09600
C1120       C  0.22727153  0.97127485  0.80888616    -0.11300
C1121       C  0.21771882  0.94147601  0.79944212    -0.01100
C1122       C  0.22386585  0.94337840  0.78108802    -0.10200
C1123       C  0.26848491  0.53721438  0.77319747     0.06300
H1124       H  0.25078718  0.52455595  0.80803677     0.08200
H1125       H  0.22285245  0.97084954  0.82303458     0.11700
H1126       H  0.21675153  0.92096477  0.77342569     0.11900
H1127       H  0.24467432  0.97526324  0.75837874     0.08200
C1128       C  0.29444512  0.54392893  0.76122141    -0.10900
C1129       C  0.31143614  0.57475151  0.75262268    -0.10200
C1130       C  0.30243547  0.59931062  0.75554571    -0.01100
C1131       C  0.27745239  0.59326960  0.76800761    -0.11300
C1132       C  0.26059943  0.56246801  0.77677291    -0.09700
H1133       H  0.30162926  0.52531505  0.75851723     0.08200
H1134       H  0.33109015  0.57914346  0.74328843     0.11900
H1135       H  0.27008971  0.61185025  0.77041368     0.11700
H1136       H  0.24071299  0.55802008  0.78595073     0.08200
C1137       C  0.23409509  0.75849553  0.77049631    -0.10900
C1138       C  0.25226910  0.74646009  0.77997906     0.06300
C1139       C  0.25538857  0.75101046  0.79842464    -0.09600
C1140       C  0.24067064  0.76698722  0.80724080    -0.11300
C1141       C  0.22235478  0.77899810  0.79789537    -0.01100
C1142       C  0.21936951  0.77475038  0.77936876    -0.10200
C1143       C  0.26788128  0.72899844  0.77087697     0.06300
H1144       H  0.26879514  0.74166522  0.80614114     0.08200
H1145       H  0.24359258  0.76974054  0.82151418     0.11700
H1146       H  0.20551370  0.78373869  0.77177838     0.11900
H1147       H  0.23154957  0.75560061  0.75621384     0.08200
C1148       C  0.25045572  0.70504265  0.75766549    -0.10900
C1149       C  0.26514457  0.68847533  0.74927630    -0.10200
C1150       C  0.29784463  0.69609846  0.75362721    -0.01100
C1151       C  0.31490234  0.71922592  0.76716888    -0.11300
C1152       C  0.30010288  0.73556504  0.77569958    -0.09700
H1153       H  0.22536711  0.69892049  0.75393428     0.08200
H1154       H  0.25123613  0.67016916  0.73909777     0.11900
H1155       H  0.34012795  0.72550471  0.77071231     0.11700
H1156       H  0.31420978  0.75396274  0.78579894     0.08200
C1157       C  0.02642488  0.76135567  0.69814551    -0.10900
C1158       C  0.49620597  0.74817630  0.68857141     0.06300
C1159       C  0.99766983  0.75174205  0.67005167    -0.09600
C1160       C  0.02837870  0.76757628  0.66125887    -0.11300
C1161       C  0.05866968  0.78049749  0.67071859    -0.01100
C1162       C  0.05734598  0.77741635  0.68931286    -0.10200
C1163       C  0.46323137  0.73032148  0.69771307     0.06300
H1164       H  0.47490770  0.74151390  0.66227302     0.08200
H1165       H  0.02826662  0.76933761  0.64692535     0.11700
H1166       H  0.08013082  0.78713048  0.69700694     0.11900
H1167       H  0.02610225  0.75933448  0.71247747     0.08200
C1168       C  0.45765938  0.70724109  0.71126014    -0.10900
C1169       C  0.42668005  0.69039688  0.71981619    -0.10200
C1170       C  0.40085485  0.69687627  0.71533855    -0.01100
C1171       C  0.40592060  0.71905736  0.70143839    -0.11300
C1172       C  0.43681467  0.73563879  0.69270255    -0.09700
H1173       H  0.47720270  0.70203279  0.71515154     0.08200
H1174       H  0.42310332  0.67282466  0.73025990     0.11900
H1175       H  0.38637813  0.72443165  0.69776973     0.11700
H1176       H  0.44033057  0.75329102  0.68231969     0.08200
C1177       C  0.30626019  0.55850468  0.69627252    -0.10900
C1178       C  0.27251050  0.53447931  0.69924809     0.06300
C1179       C  0.25319537  0.54277938  0.71033558    -0.09600
C1180       C  0.26740052  0.57415456  0.71843217    -0.11300
C1181       C  0.30123744  0.59773918  0.71572704    -0.01100
C1182       C  0.32045187  0.58991426  0.70439514    -0.10200
C1183       C  0.25719019  0.50140398  0.69026496     0.06300
H1184       H  0.22702808  0.52511985  0.71262052     0.08200
H1185       H  0.25216465  0.57986328  0.72711868     0.11700
H1186       H  0.34669209  0.60766148  0.70234967     0.11900
H1187       H  0.32186960  0.55277042  0.68791410     0.08200
C1188       C  0.26448543  0.99940766  0.67245717    -0.10900
C1189       C  0.24906743  0.96891077  0.66353096    -0.10200
C1190       C  0.22589735  0.93940258  0.67222455    -0.01100
C1191       C  0.21906214  0.94104772  0.69026834    -0.11300
C1192       C  0.23440035  0.97182666  0.69922258    -0.09700
H1193       H  0.28152769  0.02166497  0.66517267     0.08200
H1194       H  0.25510227  0.96856570  0.64965698     0.11900
H1195       H  0.20134111  0.91876725  0.69731427     0.17100
H1196       H  0.22863047  0.47259644  0.71303375     0.08200
C1197       C  0.29391955  0.74522680  0.70820375    -0.10900
C1198       C  0.26957782  0.72696594  0.69531061     0.06300
C1199       C  0.26302661  0.69454428  0.69100864    -0.09600
C1200       C  0.27931655  0.68016588  0.70007465    -0.11300
C1201       C  0.30244584  0.69801226  0.71352354    -0.01100
C1202       C  0.31045116  0.73106206  0.71704049    -0.10200
C1203       C  0.25135613  0.74197175  0.68641624     0.06300
H1204       H  0.24448788  0.67991917  0.68106646     0.08200
H1205       H  0.27285500  0.65468281  0.69712177     0.11700
H1206       H  0.32877370  0.74556279  0.72710253     0.11900
H1207       H  0.30012254  0.77050591  0.71148817     0.08200
C1208       C  0.23935163  0.75982414  0.69625030    -0.10900
C1209       C  0.22353105  0.77525979  0.68775699    -0.10200
C1210       C  0.21965071  0.77341882  0.66921979    -0.01100
C1211       C  0.23115760  0.75499812  0.65947486    -0.11300
C1212       C  0.24665768  0.73938390  0.66796457    -0.09700
H1213       H  0.24223668  0.76185028  0.71054554     0.08200
H1214       H  0.21485718  0.78906511  0.69565931     0.11900
H1215       H  0.22850174  0.75285966  0.64517217     0.11700
H1216       H  0.25579142  0.72601590  0.66002014     0.08200
C1217       C  0.06844373  0.68355764  0.57847909    -0.10900
C1218       C  0.08924969  0.68044854  0.56592117     0.06300
C1219       C  0.12375080  0.70283302  0.56627489    -0.09600
C1220       C  0.13727014  0.72814028  0.57895523    -0.11300
C1221       C  0.11640033  0.73170836  0.59128737    -0.01100
C1222       C  0.08189544  0.70920771  0.59099203    -0.10200
C1223       C  0.07501511  0.65367806  0.55256621     0.06300
H1224       H  0.14023373  0.70058498  0.55681452     0.08200
H1225       H  0.16395387  0.74538127  0.57885627     0.11700
H1226       H  0.06536573  0.71148856  0.60040505     0.11900
H1227       H  0.04171766  0.66651961  0.57838061     0.08200
C1228       C  0.05249855  0.62092662  0.55779728    -0.10900
C1229       C  0.03946779  0.59534658  0.54531015    -0.10200
C1230       C  0.04857072  0.60207862  0.52732411    -0.01100
C1231       C  0.07077432  0.63498205  0.52203618    -0.11300
C1232       C  0.08404425  0.66060418  0.53460999    -0.09700
H1233       H  0.04546983  0.61503620  0.57160776     0.08200
H1234       H  0.02238833  0.57021121  0.54980497     0.11900
H1235       H  0.07823773  0.64081956  0.50827992     0.11700
H1236       H  0.10122969  0.68585681  0.53032279     0.08200
C1237       C  0.30181720  0.92541157  0.56772390    -0.10900
C1238       C  0.31843764  0.90776210  0.56363300     0.06300
C1239       C  0.31038279  0.87843365  0.57294256    -0.09600
C1240       C  0.28580078  0.86665707  0.58604720    -0.11300
C1241       C  0.26908628  0.88424108  0.59023305    -0.01100
C1242       C  0.27746397  0.91386269  0.58101973    -0.10200
C1243       C  0.34521202  0.92051785  0.55022459     0.06300
H1244       H  0.32295288  0.86446880  0.56993638     0.08200
H1245       H  0.27980188  0.84369741  0.59284712     0.11700
H1246       H  0.26484095  0.92782196  0.58388128     0.11900
H1247       H  0.30801644  0.94831799  0.56080129     0.08200
C1248       C  0.33999260  0.92889005  0.53305927    -0.10900
C1249       C  0.36584503  0.94112210  0.52053346    -0.10200
C1250       C  0.39733627  0.94567534  0.52519063    -0.01100
C1251       C  0.40225499  0.93703954  0.54236579    -0.11300
C1252       C  0.37641506  0.92442566  0.55471065    -0.09700
H1253       H  0.31592468  0.92583017  0.52936401     0.08200
H1254       H  0.36149896  0.94777761  0.50742309     0.11900
H1255       H  0.42625542  0.94024964  0.54634238     0.11700
H1256       H  0.38097275  0.91830210  0.56791347     0.08200
C1257       C  0.07622157  0.91344314  0.53270022    -0.10900
C1258       C  0.08369366  0.92635829  0.55005896     0.06300
C1259       C  0.07794617  0.95240933  0.55482357    -0.09600
C1260       C  0.06427176  0.96488189  0.54261498    -0.11300
C1261       C  0.05643695  0.95190011  0.52526866    -0.01100
C1262       C  0.06298112  0.92636164  0.52031350    -0.10200
C1263       C  0.09653113  0.91226488  0.56347630     0.06300
H1264       H  0.08327838  0.96256436  0.56815922     0.08200
H1265       H  0.05967669  0.98469370  0.54682543     0.11700
H1266       H  0.05714821  0.91589889  0.50705676     0.11900
H1267       H  0.08065107  0.89339711  0.52875660     0.08200
C1268       C  0.07987172  0.87778133  0.56664495    -0.10900
C1269       C  0.09098805  0.86462197  0.57997007    -0.10200
C1270       C  0.11926406  0.88568139  0.59020832    -0.01100
C1271       C  0.13602611  0.92021471  0.58692087    -0.11300
C1272       C  0.12459880  0.93339119  0.57376639    -0.09700
H1273       H  0.05793105  0.86110619  0.55899888     0.08200
H1274       H  0.07768963  0.83788322  0.58208237     0.11900
H1275       H  0.15798949  0.93705992  0.59449771     0.11700
H1276       H  0.13783539  0.96009846  0.57151072     0.08200
Zn1277     Zn  0.69083786  0.31074440  0.62372133     1.49700
Zn1278     Zn  0.69081612  0.37883587  0.62471202     1.49400
Zn1279     Zn  0.62248259  0.31114352  0.62424591     1.49100
Zn1280     Zn  0.66773367  0.33134549  0.65976876     1.49500
O1281       O  0.66795739  0.33304201  0.63346152    -1.84200
O1282       O  0.72997814  0.34073044  0.60864643    -0.74800
O1283       O  0.66117221  0.38962716  0.60995754    -0.74600
O1284       O  0.61204183  0.27074236  0.60984817    -0.74100
O1285       O  0.72904433  0.38819651  0.60849604    -0.74800
O1286       O  0.66116981  0.27316643  0.60783583    -0.74400
O1287       O  0.61454126  0.34082677  0.60787802    -0.75000
O1288       O  0.61893845  0.30807732  0.66901407    -0.74400
O1289       O  0.70877475  0.41022022  0.64505245    -0.75100
O1290       O  0.58962339  0.29653601  0.64400875    -0.74500
O1291       O  0.69345767  0.37947929  0.66967214    -0.75000
O1292       O  0.69078661  0.30498456  0.66822694    -0.74900
O1293       O  0.70618625  0.29194197  0.64284231    -0.74700
C1294       C  0.74147268  0.37051376  0.60326094     0.77100
C1295       C  0.63206244  0.37140440  0.60358205     0.77600
C1296       C  0.63046422  0.25978406  0.60377030     0.76500
C1297       C  0.59091474  0.29599789  0.66086833     0.76900
C1298       C  0.70840451  0.40787567  0.66189320     0.78100
C1299       C  0.70465404  0.29105025  0.65970229     0.77100
C1300       C  0.83454167  0.16390807  0.71751536     0.45400
H1301       H  0.83494505  0.16314849  0.70277326    -0.03600
C1302       C  0.83347490  0.16542737  0.75218036     0.45500
H1303       H  0.83299791  0.16602704  0.76692441    -0.03600
C1304       C  0.81719706  0.12916619  0.72619343    -0.17300
C1305       C  0.86953910  0.18229159  0.72599577    -0.17100
C1306       C  0.81623082  0.18150131  0.72498614    -0.17400
C1307       C  0.81701063  0.12994924  0.74443305    -0.17400
C1308       C  0.86895348  0.18354459  0.74426079    -0.17000
C1309       C  0.81518600  0.18177524  0.74326345    -0.17300
Zn1310     Zn  0.69334101  0.31220506  0.84499483     1.49700
Zn1311     Zn  0.66692519  0.33246961  0.80982847     1.49400
Zn1312     Zn  0.62240889  0.30644755  0.84567918     1.49100
Zn1313     Zn  0.68762117  0.37730849  0.84563760     1.49500
O1314       O  0.66754751  0.33212912  0.83618768    -1.84200
O1315       O  0.70827029  0.29522922  0.82484865    -0.74800
O1316       O  0.61794918  0.30772724  0.80093031    -0.74600
O1317       O  0.61625766  0.26790448  0.86057103    -0.74100
O1318       O  0.69165869  0.30866364  0.80002731    -0.74800
O1319       O  0.66715227  0.27433759  0.86192725    -0.74400
O1320       O  0.58923212  0.28930486  0.82607501    -0.75000
O1321       O  0.65570088  0.38424941  0.86051864    -0.74400
O1322       O  0.69022109  0.38130571  0.80084902    -0.75100
O1323       O  0.61056299  0.33406469  0.86150809    -0.74500
O1324       O  0.70264860  0.41026671  0.82602802    -0.75000
O1325       O  0.72747589  0.38879069  0.86100983    -0.74900
O1326       O  0.73399157  0.34455658  0.85845185    -0.74700
C1327       C  0.70658630  0.29528643  0.80799756     0.77100
C1328       C  0.59012932  0.29174616  0.80924040     0.77600
C1329       C  0.63659195  0.25925220  0.86655373     0.76500
C1330       C  0.62624526  0.36464278  0.86603636     0.76900
C1331       C  0.70263549  0.40917710  0.80916001     0.78100
C1332       C  0.74336835  0.37355297  0.86455041     0.77100
Zn1333     Zn  0.87950413  0.19293124  0.34420813     1.49700
Zn1334     Zn  0.83311344  0.16834323  0.30880520     1.49400
Zn1335     Zn  0.81222168  0.12422073  0.34476510     1.49100
Zn1336     Zn  0.81066840  0.19196736  0.34413059     1.49500
O1337       O  0.83387006  0.16934872  0.33514709    -1.84200
O1338       O  0.91156449  0.20569703  0.32421186    -0.74800
O1339       O  0.80682393  0.11940061  0.30004535    -0.74600
O1340       O  0.84328068  0.11509853  0.35940262    -0.74100
O1341       O  0.88153430  0.19052755  0.29933710    -0.74800
O1342       O  0.88882438  0.16485311  0.36104707    -0.74400
O1343       O  0.79266328  0.09052673  0.32525856    -0.75000
O1344       O  0.77168986  0.16260211  0.35970158    -0.74400
O1345       O  0.81018182  0.19399603  0.29927102    -0.75100
O1346       O  0.77536730  0.11661086  0.36148532    -0.74500
O1347       O  0.79492091  0.20864999  0.32418988    -0.75000
O1348       O  0.84042244  0.23156045  0.35914932    -0.74900
O1349       O  0.88977607  0.23445646  0.35776709    -0.74700
C1350       C  0.90973480  0.20381714  0.30736149     0.77100
C1351       C  0.79220876  0.09155547  0.30837245     0.77600
C1352       C  0.87238060  0.13430658  0.36555760     0.76500
C1353       C  0.76188068  0.13370653  0.36606490     0.76900
C1354       C  0.79633481  0.20840515  0.30733120     0.78100
C1355       C  0.87119814  0.24571168  0.36325831     0.77100
C1356       C  0.66599183  0.33579138  0.21650571     0.45400
H1357       H  0.66603065  0.33618143  0.20175282    -0.03600
C1358       C  0.66586097  0.33481314  0.25119184     0.45500
H1359       H  0.66572700  0.33431905  0.26594368    -0.03600
C1360       C  0.63086220  0.31695128  0.22461572    -0.17300
C1361       C  0.68463646  0.31905648  0.22441387    -0.17100
C1362       C  0.68238935  0.37063159  0.22503560    -0.17400
C1363       C  0.63074444  0.31685166  0.24286767    -0.17400
C1364       C  0.68418301  0.31806199  0.24267471    -0.17000
C1365       C  0.68280813  0.37023397  0.24331221    -0.17300
Zn1366     Zn  0.78590404  0.14474750  0.14138516     1.49700
Zn1367     Zn  0.83140696  0.16668398  0.10758121     1.49400
Zn1368     Zn  0.85626700  0.21370586  0.14086490     1.49100
Zn1369     Zn  0.85544927  0.14324004  0.14058477     1.49500
O1370       O  0.83231529  0.16709505  0.13305754    -1.84200
O1371       O  0.75250272  0.12533117  0.12107640    -0.74800
O1372       O  0.84743888  0.21103885  0.09742845    -0.74600
O1373       O  0.82564728  0.22406301  0.15548159    -0.74100
O1374       O  0.78662219  0.13787993  0.09809954    -0.74800
O1375       O  0.77657984  0.17703128  0.15504355    -0.74400
O1376       O  0.87123783  0.24579068  0.11996115    -0.75000
O1377       O  0.89631474  0.17403870  0.15508220    -0.74400
O1378       O  0.85904322  0.14989344  0.09711176    -0.75100
O1379       O  0.89735562  0.22275320  0.15491819    -0.74500
O1380       O  0.87224664  0.12776956  0.11953367    -0.75000
O1381       O  0.82395329  0.10261251  0.15497531    -0.74900
O1382       O  0.77721373  0.10543997  0.15661220    -0.74700
C1383       C  0.75742376  0.12374387  0.10454908     0.77100
C1384       C  0.86416466  0.24042617  0.10350163     0.77600
C1385       C  0.79467740  0.20760127  0.15949143     0.76500
C1386       C  0.91020589  0.20486742  0.15929301     0.76900
C1387       C  0.87258822  0.13381165  0.10300252     0.78100
C1388       C  0.79385221  0.09090764  0.16023687     0.77100
Zn1389     Zn  0.54715687  0.02041993  0.97706735     1.49700
Zn1390     Zn  0.97939526  0.02456075  0.97630395     1.49400
Zn1391     Zn  0.97572620  0.45310012  0.97696550     1.49100
Zn1392     Zn  0.49947869  0.99974521  0.01025347     1.49500
O1393       O  0.50048738  0.99948221  0.98482131    -1.84200
O1394       O  0.55926670  0.06143921  0.96252443    -0.74800
O1395       O  0.94160361  0.49609824  0.95991906    -0.74600
O1396       O  0.50469679  0.44199798  0.96192274    -0.74100
O1397       O  0.51248719  0.06416022  0.96212342    -0.74800
O1398       O  0.55376002  0.48891064  0.96141643    -0.74400
O1399       O  0.93784989  0.44624567  0.96124033    -0.75000
O1400       O  0.97143295  0.45511084  0.02027748    -0.74400
O1401       O  0.96215641  0.04149069  0.99642062    -0.75100
O1402       O  0.95724214  0.42039546  0.99742517    -0.74500
O1403       O  0.98220476  0.02783738  0.01969417    -0.75000
O1404       O  0.54398570  0.01633558  0.02051240    -0.74900
O1405       O  0.57925131  0.03337782  0.99781976    -0.74700
C1406       C  0.54286791  0.07551612  0.95758354     0.77100
C1407       C  0.92793639  0.46558726  0.95521609     0.77600
C1408       C  0.53479025  0.45877527  0.95656765     0.76500
C1409       C  0.95706371  0.42574729  0.01400824     0.76900
C1410       C  0.96700153  0.04179267  0.01309392     0.78100
C1411       C  0.57344268  0.02927712  0.01443350     0.77100
Zn1412     Zn  0.50067064  0.50009547  0.50996511     1.49700
Zn1413     Zn  0.52432521  0.47829533  0.47612038     1.49400
Zn1414     Zn  0.95505444  0.48050446  0.47603916     1.49100
Zn1415     Zn  0.52526150  0.04859222  0.47693414     1.49500
O1416       O  0.50134214  0.50185418  0.48448326    -1.84200
O1417       O  0.52631714  0.47991216  0.51960048    -0.74800
O1418       O  0.99388246  0.44062567  0.46000184    -0.74600
O1419       O  0.92125740  0.46198972  0.49618458    -0.74100
O1420       O  0.54068872  0.46049685  0.49630545    -0.74800
O1421       O  0.95490707  0.47430712  0.51940583    -0.74400
O1422       O  0.94699585  0.44327516  0.45931820    -0.75000
O1423       O  0.99612657  0.05889849  0.46131535    -0.74400
O1424       O  0.56434296  0.00947012  0.46138443    -0.75100
O1425       O  0.94660413  0.01259629  0.46201759    -0.74500
O1426       O  0.56566090  0.05820462  0.46254171    -0.75000
O1427       O  0.54013078  0.08013450  0.49788018    -0.74900
O1428       O  0.52041422  0.04479903  0.52046715    -0.74700
C1429       C  0.54028801  0.46463627  0.51302745     0.77100
C1430       C  0.96438799  0.43033303  0.45419756     0.77600
C1431       C  0.92577418  0.46130238  0.51283258     0.76500
C1432       C  0.96550389  0.04243631  0.45676392     0.76900
C1433       C  0.57766547  0.04017934  0.45715907     0.78100
C1434       C  0.53565422  0.07434460  0.51447386     0.77100
C1435       C  0.71012590  0.08252739  0.06275806    -0.10900
C1436       C  0.67799068  0.07664558  0.06680372     0.06300
C1437       C  0.67143121  0.08434045  0.08391972    -0.09600
C1438       C  0.69691261  0.09861452  0.09656982    -0.11300
C1439       C  0.72933046  0.10567467  0.09220357    -0.01100
C1440       C  0.73553307  0.09697315  0.07529087    -0.10200
C1441       C  0.65167096  0.06326652  0.05305175     0.06300
H1442       H  0.64689687  0.08030807  0.08735011     0.08200
H1443       H  0.69155075  0.10517323  0.10949642     0.11700
H1444       H  0.76022567  0.10168496  0.07163641     0.11900
H1445       H  0.71570399  0.07612558  0.04984426     0.08200
C1446       C  0.65917247  0.07434830  0.03535381    -0.10900
C1447       C  0.63398235  0.06259463  0.02253214    -0.10200
C1448       C  0.60090329  0.03985399  0.02726928    -0.01100
C1449       C  0.59361283  0.02824726  0.04485882    -0.11300
C1450       C  0.61874093  0.03975560  0.05759301    -0.09700
H1451       H  0.68432955  0.09278527  0.03152330     0.08200
H1452       H  0.64019512  0.07203763  0.00909064     0.11900
H1453       H  0.56834411  0.01038916  0.04885372     0.11700
H1454       H  0.61236566  0.03026650  0.07101765     0.08200
C1455       C  0.87647707  0.28718703  0.06065273    -0.10900
C1456       C  0.90049766  0.31975898  0.06545705     0.06300
C1457       C  0.91163761  0.32655135  0.08316682    -0.09600
C1458       C  0.89932951  0.30099676  0.09577017    -0.11300
C1459       C  0.87581187  0.26827490  0.09081968    -0.01100
C1460       C  0.86429061  0.26172953  0.07317626    -0.10200
C1461       C  0.91391134  0.34647432  0.05196831     0.06300
H1462       H  0.93040617  0.35145722  0.08717588     0.08200
H1463       H  0.90873510  0.30669395  0.10924223     0.11700
H1464       H  0.84595037  0.23679398  0.06895445     0.11900
H1465       H  0.86698613  0.28138753  0.04719752     0.08200
C1466       C  0.92155866  0.34037814  0.03475336    -0.10900
C1467       C  0.93467616  0.36584757  0.02211542    -0.10200
C1468       C  0.94060761  0.39783159  0.02657043    -0.01100
C1469       C  0.93247666  0.40372638  0.04368855    -0.11300
C1470       C  0.91917189  0.37828341  0.05623651    -0.09700
H1471       H  0.91808983  0.31612942  0.03118645     0.08200
H1472       H  0.94106369  0.36079785  0.00906899     0.11900
H1473       H  0.93655760  0.42813385  0.04743405     0.11700
H1474       H  0.91289713  0.38347889  0.06927630     0.08200
C1475       C  0.91458278  0.07509371  0.03371349    -0.10900
C1476       C  0.92884235  0.08407636  0.05078355     0.06300
C1477       C  0.95660750  0.08059685  0.05485606    -0.09600
C1478       C  0.96930199  0.06759419  0.04236706    -0.11300
C1479       C  0.95475350  0.05805887  0.02544038    -0.01100
C1480       C  0.92757763  0.06235108  0.02109337    -0.10200
C1481       C  0.91495047  0.09707544  0.06434335     0.06300
H1482       H  0.96863058  0.08801475  0.06770860     0.08200
H1483       H  0.99052626  0.06485250  0.04601649     0.11700
H1484       H  0.91575879  0.05488667  0.00818957     0.11900
H1485       H  0.89290925  0.07716879  0.03025125     0.08200
C1486       C  0.90357473  0.11896139  0.05941242    -0.10900
C1487       C  0.89033526  0.13112268  0.07207995    -0.10200
C1488       C  0.88823269  0.12178909  0.09002519    -0.01100
C1489       C  0.90001697  0.10026023  0.09505989    -0.11300
C1490       C  0.91317721  0.08792771  0.08231596    -0.09700
H1491       H  0.90518484  0.12697655  0.04576422     0.08200
H1492       H  0.88163475  0.14784145  0.06774053     0.11900
H1493       H  0.89856551  0.09252801  0.10875360     0.11700
H1494       H  0.92141147  0.07075709  0.08648656     0.08200
C1495       C  0.54641231  0.25013291  0.20771424    -0.10900
C1496       C  0.53900883  0.26761133  0.19489048     0.06300
C1497       C  0.56322493  0.30092972  0.19112339    -0.09600
C1498       C  0.59358071  0.31665086  0.20037371    -0.11300
C1499       C  0.60019672  0.29944213  0.21360592    -0.01100
C1500       C  0.57675100  0.26582228  0.21687981    -0.10200
C1501       C  0.50588094  0.25138892  0.18583894     0.06300
H1502       H  0.55864480  0.31491850  0.18108254     0.08200
H1503       H  0.61147110  0.34254792  0.19758260     0.11700
H1504       H  0.58164361  0.25190520  0.22683721     0.11900
H1505       H  0.52836377  0.22458234  0.21106567     0.08200
C1506       C  0.48994429  0.21743145  0.18106949    -0.10900
C1507       C  0.95863103  0.20216210  0.17278522    -0.10200
C1508       C  0.94253169  0.22051581  0.16898324    -0.01100
C1509       C  0.95838460  0.25440778  0.17382226    -0.11300
C1510       C  0.98961062  0.26961283  0.18216740    -0.09700
H1511       H  0.50189214  0.20271017  0.18348738     0.08200
H1512       H  0.94727852  0.17607424  0.16912864     0.11900
H1513       H  0.94673133  0.26930669  0.17109914     0.11700
H1514       H  0.00083929  0.29562928  0.18593508     0.08200
C1515       C  0.73369026  0.43762218  0.19143287    -0.10900
C1516       C  0.72667766  0.46304430  0.19611819     0.06300
C1517       C  0.70314801  0.45678270  0.20958706    -0.09600
C1518       C  0.68765600  0.42621059  0.21843218    -0.11300
C1519       C  0.69591669  0.40153644  0.21429652    -0.01100
C1520       C  0.71839635  0.40711579  0.20044547    -0.10200
C1521       C  0.74408196  0.49610196  0.18719004     0.06300
H1522       H  0.69730606  0.47581627  0.21363170     0.08200
H1523       H  0.66982544  0.42213426  0.22885153     0.11700
H1524       H  0.72489198  0.38826822  0.19697475     0.11900
H1525       H  0.75113173  0.44137188  0.18085962     0.08200
C1526       C  0.77821124  0.01082923  0.18259449    -0.10900
C1527       C  0.79454003  0.04188870  0.17416119    -0.10200
C1528       C  0.77729889  0.05904236  0.17020392    -0.01100
C1529       C  0.74344034  0.04453366  0.17500713    -0.11300
C1530       C  0.72710557  0.01345464  0.18336893    -0.09700
H1531       H  0.79229906  0.99843825  0.18563661     0.08200
H1532       H  0.82061416  0.05232579  0.17062282     0.11900
H1533       H  0.72931298  0.05692054  0.17203727     0.11700
H1534       H  0.70060912  0.50253072  0.18638809     0.08200
C1535       C  0.78284720  0.27556542  0.18085972    -0.10900
C1536       C  0.74882858  0.25811635  0.18555866     0.06300
C1537       C  0.73020849  0.22370526  0.18194103    -0.09600
C1538       C  0.74517349  0.20720514  0.17374628    -0.11300
C1539       C  0.77917068  0.22469364  0.16900502    -0.01100
C1540       C  0.79783385  0.25906362  0.17271262    -0.10200
C1541       C  0.73303134  0.27556177  0.19454675     0.06300
H1542       H  0.70410741  0.20938143  0.18565295     0.08200
H1543       H  0.73003544  0.18073587  0.17107414     0.11700
H1544       H  0.82399400  0.27339069  0.16910666     0.11900
H1545       H  0.79783325  0.30214557  0.18324015     0.08200
C1546       C  0.75072333  0.30007870  0.20750072    -0.10900
C1547       C  0.73543657  0.31524473  0.21663975    -0.10200
C1548       C  0.70200562  0.30593180  0.21321001    -0.01100
C1549       C  0.68463145  0.28253884  0.19981688    -0.11300
C1550       C  0.69995639  0.26737916  0.19059512    -0.09700
H1551       H  0.77608619  0.30683218  0.21099418     0.08200
H1552       H  0.74941901  0.33361173  0.22677968     0.11900
H1553       H  0.65885402  0.27516313  0.19693397     0.11700
H1554       H  0.68584279  0.24907804  0.18046241     0.08200
C1555       C  0.74631093  0.45668060  0.25956020    -0.10900
C1556       C  0.72769291  0.46339529  0.27201339     0.06300
C1557       C  0.69492657  0.43798616  0.27601347    -0.09600
C1558       C  0.68079233  0.40704303  0.26729232    -0.11300
C1559       C  0.69910812  0.40100137  0.25439882    -0.01100
C1560       C  0.73226598  0.42576358  0.25095945    -0.10200
C1561       C  0.74274064  0.49658050  0.28097543     0.06300
H1562       H  0.67990410  0.44237524  0.28552329     0.08200
H1563       H  0.65513750  0.38833104  0.27008131     0.11700
H1564       H  0.74699887  0.42144478  0.24121617     0.11900
H1565       H  0.77182301  0.47536237  0.25648341     0.08200
C1566       C  0.73811884  0.99872093  0.29927276    -0.10900
C1567       C  0.75374691  0.02959382  0.30794687    -0.10200
C1568       C  0.77431199  0.05929510  0.29858759    -0.01100
C1569       C  0.77817376  0.05734184  0.28018617    -0.11300
C1570       C  0.76269290  0.02629289  0.27150473    -0.09700
H1571       H  0.72345906  0.47630009  0.30700681     0.08200
H1572       H  0.74997362  0.03009192  0.32211310     0.11900
H1573       H  0.79368624  0.07969168  0.27256824     0.11700
H1574       H  0.76635770  0.02550713  0.25734643     0.08200
C1575       C  0.00203149  0.24119307  0.29759482    -0.10900
C1576       C  0.50394134  0.24933645  0.27954822     0.06300
C1577       C  0.97416115  0.24083861  0.27031897    -0.09600
C1578       C  0.94323979  0.22513686  0.27910892    -0.11300
C1579       C  0.94159092  0.21793375  0.29731823    -0.01100
C1580       C  0.97133641  0.22583016  0.30637092    -0.10200
C1581       C  0.53700420  0.26736008  0.27060419     0.06300
H1582       H  0.47487660  0.24651165  0.25632814     0.08200
H1583       H  0.92080689  0.21936929  0.27177871     0.11700
H1584       H  0.97101832  0.22050854  0.32039323     0.11900
H1585       H  0.02446608  0.24761750  0.30509678     0.08200
C1586       C  0.54438937  0.29408184  0.25910417    -0.10900
C1587       C  0.57546322  0.31110837  0.25070580    -0.10200
C1588       C  0.59966920  0.30162936  0.25355312    -0.01100
C1589       C  0.59285996  0.27565403  0.26539412    -0.11300
C1590       C  0.56172224  0.25855830  0.27381834    -0.09700
H1591       H  0.52616650  0.30189876  0.25666196     0.08200
H1592       H  0.58044029  0.33129960  0.24167425     0.11900
H1593       H  0.61115399  0.26782344  0.26758947     0.11700
H1594       H  0.55668494  0.23795361  0.28253808     0.08200
C1595       C  0.76017934  0.23677904  0.27012535    -0.10900
C1596       C  0.74988606  0.25653671  0.27953609     0.06300
C1597       C  0.75597648  0.26095839  0.29785441    -0.09600
C1598       C  0.77140134  0.24564522  0.30663079    -0.11300
C1599       C  0.78132874  0.22548951  0.29735925    -0.01100
C1600       C  0.77589520  0.22151722  0.27893863    -0.10200
C1601       C  0.73225168  0.27201861  0.27048792     0.06300
H1602       H  0.74807627  0.27566602  0.30553268     0.08200
H1603       H  0.77529317  0.24945789  0.32081719     0.11700
H1604       H  0.78330135  0.20625526  0.27140875     0.11900
H1605       H  0.75617220  0.23322886  0.25593580     0.08200
C1606       C  0.73944520  0.30463082  0.27484578    -0.10900
C1607       C  0.72282889  0.31914084  0.26631719    -0.10200
C1608       C  0.69890275  0.30141209  0.25322056    -0.01100
C1609       C  0.69083204  0.26848290  0.24927847    -0.11300
C1610       C  0.70748385  0.25401399  0.25772817    -0.09700
H1611       H  0.75849809  0.31922375  0.28456044     0.08200
H1612       H  0.72949058  0.34460948  0.26947859     0.11900
H1613       H  0.67204371  0.25419248  0.23937769     0.11700
H1614       H  0.70081938  0.22863683  0.25436233     0.08200
C1615       C  0.64982626  0.10264914  0.42904168    -0.10900
C1616       C  0.65965199  0.08199895  0.42027728     0.06300
C1617       C  0.64339619  0.04783165  0.42450852    -0.09600
C1618       C  0.61753087  0.03450807  0.43691784    -0.11300
C1619       C  0.60702957  0.05494418  0.44525389    -0.01100
C1620       C  0.62369621  0.08924160  0.44134113    -0.10200
C1621       C  0.68612583  0.09570478  0.40646031     0.06300
H1622       H  0.64992612  0.03107830  0.41784032     0.08200
H1623       H  0.60511813  0.00796217  0.43958280     0.11700
H1624       H  0.61631477  0.10569272  0.44762858     0.11900
H1625       H  0.66225836  0.12918519  0.42637345     0.08200
C1626       C  0.68902946  0.12076708  0.39477354    -0.10900
C1627       C  0.71351108  0.13306343  0.38154204    -0.10200
C1628       C  0.73520114  0.12015997  0.37955926    -0.01100
C1629       C  0.73228069  0.09509788  0.39117037    -0.11300
C1630       C  0.70822663  0.08321597  0.40456176    -0.09700
H1631       H  0.67206436  0.13055164  0.39565402     0.08200
H1632       H  0.71526508  0.15242409  0.37276187     0.11900
H1633       H  0.74908885  0.08512466  0.39014900     0.11700
H1634       H  0.70721605  0.06446828  0.41355022     0.08200
C1635       C  0.93291913  0.32086918  0.38985225    -0.10900
C1636       C  0.91147760  0.32745986  0.40024215     0.06300
C1637       C  0.87678631  0.30800073  0.39760445    -0.09600
C1638       C  0.86383251  0.28221761  0.38513900    -0.11300
C1639       C  0.88523025  0.27497888  0.37519036    -0.01100
C1640       C  0.91992013  0.29475180  0.37754473    -0.10200
C1641       C  0.92510158  0.35389993  0.41408650     0.06300
H1642       H  0.85949374  0.31197928  0.40554601     0.08200
H1643       H  0.83695959  0.26724358  0.38372316     0.11700
H1644       H  0.93702502  0.28988214  0.36997164     0.11900
H1645       H  0.95978096  0.33582312  0.39125576     0.08200
C1646       C  0.95328138  0.35984449  0.42409456    -0.10900
C1647       C  0.96590633  0.38447781  0.43722298    -0.10200
C1648       C  0.95037208  0.40340961  0.44079767    -0.01100
C1649       C  0.92205968  0.39732817  0.43092723    -0.11300
C1650       C  0.90969831  0.37300935  0.41764578    -0.09700
H1651       H  0.96537821  0.34516661  0.42196568     0.08200
H1652       H  0.98773988  0.38856781  0.44463926     0.11900
H1653       H  0.90979402  0.41181530  0.43322320     0.11700
H1654       H  0.88833120  0.36953818  0.41000115     0.08200
C1655       C  0.88325475  0.07507946  0.39596764    -0.10900
C1656       C  0.91248227  0.09698576  0.40532757     0.06300
C1657       C  0.92885837  0.13115628  0.40107204    -0.09600
C1658       C  0.91630241  0.14310089  0.38785188    -0.11300
C1659       C  0.88686365  0.12123735  0.37868396    -0.01100
C1660       C  0.87051076  0.08708220  0.38286957    -0.10200
C1661       C  0.92603199  0.08416800  0.41928077     0.06300
H1662       H  0.95109744  0.14885508  0.40817149     0.08200
H1663       H  0.92933179  0.16962142  0.38507585     0.11700
H1664       H  0.84778475  0.06957967  0.37604719     0.11900
H1665       H  0.87033122  0.04852868  0.39861606     0.08200
C1666       C  0.90443558  0.05740477  0.43026470    -0.10900
C1667       C  0.91722164  0.04423260  0.44269405    -0.10200
C1668       C  0.95188822  0.05785187  0.44461830    -0.01100
C1669       C  0.97350622  0.08527875  0.43409386    -0.11300
C1670       C  0.96074055  0.09812705  0.42148628    -0.09700
H1671       H  0.87759995  0.04653233  0.42924524     0.08200
H1672       H  0.89995141  0.02325371  0.45073822     0.11900
H1673       H  0.00034606  0.09613162  0.43517356     0.11700
H1674       H  0.97815225  0.11838819  0.41311108     0.08200
C1675       C  0.57848077  0.18339032  0.89345980    -0.10900
C1676       C  0.60017246  0.18264107  0.90633218     0.06300
C1677       C  0.63441171  0.20639689  0.90540006    -0.09600
C1678       C  0.64650841  0.23066846  0.89207169    -0.11300
C1679       C  0.62453264  0.23189151  0.87958642    -0.01100
C1680       C  0.59047404  0.20791341  0.88034192    -0.10200
C1681       C  0.58686390  0.15707806  0.92059378     0.06300
H1682       H  0.65173069  0.20674189  0.91520463     0.08200
H1683       H  0.67286037  0.24914290  0.89188679     0.11700
H1684       H  0.57306101  0.20815394  0.87078459     0.11900
H1685       H  0.55213639  0.16494266  0.89348531     0.08200
C1686       C  0.55525529  0.14689758  0.92802369    -0.10900
C1687       C  0.54142278  0.12108553  0.94041604    -0.10200
C1688       C  0.55897899  0.10498681  0.94580039    -0.01100
C1689       C  0.59121602  0.11611346  0.93898926    -0.11300
C1690       C  0.60499265  0.14185066  0.92648582    -0.09700
H1691       H  0.54099214  0.15869578  0.92413772     0.08200
H1692       H  0.51666982  0.11334975  0.94552469     0.11900
H1693       H  0.60542425  0.10426307  0.94289916     0.11700
H1694       H  0.62932103  0.14896336  0.92097745     0.08200
C1695       C  0.82030634  0.38947502  0.89023163    -0.10900
C1696       C  0.82465113  0.41542786  0.90166516     0.06300
C1697       C  0.80311523  0.42863012  0.90008649    -0.09600
C1698       C  0.77742337  0.41577124  0.88757785    -0.11300
C1699       C  0.77248772  0.38919308  0.87652428    -0.01100
C1700       C  0.79436723  0.37636385  0.87784166    -0.10200
C1701       C  0.85102929  0.42823675  0.91546529     0.06300
H1702       H  0.80548542  0.44827295  0.90886991     0.08200
H1703       H  0.76073675  0.42593203  0.88697571     0.11700
H1704       H  0.79126021  0.35599664  0.86940538     0.11900
H1705       H  0.83689947  0.37921628  0.89089613     0.08200
C1706       C  0.85821524  0.40627834  0.92485728    -0.10900
C1707       C  0.88286788  0.41832892  0.93795814    -0.10200
C1708       C  0.90068399  0.45256081  0.94202194    -0.01100
C1709       C  0.89331411  0.47447136  0.93274362    -0.11300
C1710       C  0.86884617  0.46245420  0.91955763    -0.09700
H1711       H  0.84451913  0.37970185  0.92222920     0.08200
H1712       H  0.88797092  0.40081455  0.94489093     0.11900
H1713       H  0.90687145  0.50103286  0.93543602     0.11700
H1714       H  0.86423719  0.48006240  0.91237762     0.08200
C1715       C  0.60968026  0.42451614  0.89239465    -0.10900
C1716       C  0.58396617  0.40277676  0.90386050     0.06300
C1717       C  0.57090286  0.36817318  0.90201020    -0.09600
C1718       C  0.58388963  0.35567878  0.88928739    -0.11300
C1719       C  0.61044385  0.37755519  0.87832774    -0.01100
C1720       C  0.62294962  0.41205706  0.87985946    -0.10200
C1721       C  0.57140862  0.41629818  0.91790434     0.06300
H1722       H  0.55133407  0.35076488  0.91073860     0.08200
H1723       H  0.57390471  0.32895375  0.88844424     0.11700
H1724       H  0.64316155  0.42946439  0.87143219     0.11900
H1725       H  0.61969459  0.45124430  0.89314810     0.08200
C1726       C  0.59354950  0.44584984  0.92691495    -0.10900
C1727       C  0.58176167  0.45929841  0.93972643    -0.10200
C1728       C  0.54761611  0.44330020  0.94396112    -0.01100
C1729       C  0.52556415  0.41325648  0.93533442    -0.11300
C1730       C  0.53731398  0.39997208  0.92238021    -0.09700
H1731       H  0.62008154  0.45861417  0.92409873     0.08200
H1732       H  0.59939357  0.48235574  0.94623678     0.11900
H1733       H  0.49905357  0.40044662  0.93823990     0.11700
H1734       H  0.51954793  0.37736596  0.91557144     0.08200
C1735       C  0.95512382  0.24875851  0.76014436    -0.10900
C1736       C  0.96160044  0.23120280  0.77331321     0.06300
C1737       C  0.93605746  0.19891974  0.77794218    -0.09600
C1738       C  0.90528850  0.18403312  0.76907584    -0.11300
C1739       C  0.89951642  0.20109629  0.75540858    -0.01100
C1740       C  0.92426773  0.23399458  0.75143086    -0.10200
C1741       C  0.99478030  0.24650925  0.78224454     0.06300
H1742       H  0.94026940  0.18472087  0.78802069     0.08200
H1743       H  0.88654849  0.15866616  0.77235092     0.11700
H1744       H  0.92007454  0.24787277  0.74114623     0.11900
H1745       H  0.97395326  0.27390082  0.75656408     0.08200
C1746       C  0.52470484  0.26465643  0.77255035    -0.10900
C1747       C  0.55584475  0.27907291  0.78113243    -0.10200
C1748       C  0.55767051  0.27578003  0.79958879    -0.01100
C1749       C  0.52766980  0.25749087  0.80917110    -0.11300
C1750       C  0.49674299  0.24307176  0.80062461    -0.09700
H1751       H  0.52400948  0.26741526  0.75830526     0.08200
H1752       H  0.57840242  0.29294125  0.77335793     0.11900
H1753       H  0.52795746  0.25443593  0.82341110     0.11700
H1754       H  0.47424041  0.22965013  0.80849870     0.08200
C1755       C  0.74010668  0.47438616  0.77250812    -0.10900
C1756       C  0.75005460  0.00417876  0.78208659     0.06300
C1757       C  0.74322148  0.50215243  0.80029677    -0.09600
C1758       C  0.72739448  0.47128090  0.80887820    -0.11300
C1759       C  0.71782569  0.44146310  0.79945160    -0.01100
C1760       C  0.72396686  0.44332787  0.78109752    -0.10200
C1761       C  0.76846400  0.03729213  0.77324422     0.06300
H1762       H  0.75071081  0.02456581  0.80807082     0.08200
H1763       H  0.72298357  0.47088435  0.82302710     0.11700
H1764       H  0.71684351  0.42089804  0.77344856     0.11900
H1765       H  0.74475109  0.47516141  0.75836860     0.08200
C1766       C  0.79448869  0.04403846  0.76130899    -0.10900
C1767       C  0.81149796  0.07486805  0.75271981    -0.10200
C1768       C  0.80245133  0.09940108  0.75561237    -0.01100
C1769       C  0.77740951  0.09333454  0.76804006    -0.11300
C1770       C  0.76053844  0.06252480  0.77679763    -0.09700
H1771       H  0.80170053  0.02543791  0.75862485     0.08200
H1772       H  0.83119140  0.07928053  0.74340954     0.11900
H1773       H  0.77001132  0.11189686  0.77042011     0.11700
H1774       H  0.74060545  0.05804971  0.78594708     0.08200
C1775       C  0.73434075  0.25872754  0.77055059    -0.10900
C1776       C  0.75255934  0.24672605  0.78001726     0.06300
C1777       C  0.75571958  0.25129053  0.79846217    -0.09600
C1778       C  0.74097421  0.26722766  0.80729391    -0.11300
C1779       C  0.72259498  0.27918259  0.79796343    -0.01100
C1780       C  0.71959041  0.27494065  0.77943714    -0.10200
C1781       C  0.76814223  0.22925385  0.77089793     0.06300
H1782       H  0.76916626  0.24197482  0.80616624     0.08200
H1783       H  0.74391568  0.26998656  0.82156647     0.11700
H1784       H  0.70569165  0.28389259  0.77185806     0.11900
H1785       H  0.73176735  0.25582670  0.75626882     0.08200
C1786       C  0.75066956  0.20528634  0.75769854    -0.10900
C1787       C  0.76531456  0.18868941  0.74929763    -0.10200
C1788       C  0.79801497  0.19628906  0.75362647    -0.01100
C1789       C  0.81512751  0.21943965  0.76715083    -0.11300
C1790       C  0.80037271  0.23581164  0.77569259    -0.09700
H1791       H  0.72557330  0.19917111  0.75398867     0.08200
H1792       H  0.75136622  0.17036832  0.73913278     0.11900
H1793       H  0.84035605  0.22570093  0.77067610     0.11700
H1794       H  0.81451541  0.25421904  0.78578098     0.08200
C1795       C  0.52640481  0.26113336  0.69816557    -0.10900
C1796       C  0.99620218  0.24800283  0.68857964     0.06300
C1797       C  0.49767846  0.25156878  0.67006501    -0.09600
C1798       C  0.52839399  0.26743758  0.66128393    -0.11300
C1799       C  0.55867617  0.28035762  0.67075231    -0.01100
C1800       C  0.55733653  0.27723048  0.68934392    -0.10200
C1801       C  0.96322030  0.23015271  0.69770872     0.06300
H1802       H  0.97492436  0.24134147  0.66227688     0.08200
H1803       H  0.52829279  0.26923181  0.64695187     0.11700
H1804       H  0.58011455  0.28693894  0.69704299     0.11900
H1805       H  0.52606470  0.25908087  0.71249630     0.08200
C1806       C  0.95761205  0.20703708  0.71124094    -0.10900
C1807       C  0.92662892  0.19021705  0.71979376    -0.10200
C1808       C  0.90084240  0.19675988  0.71532584    -0.01100
C1809       C  0.90593858  0.21896484  0.70143441    -0.11300
C1810       C  0.93683497  0.23552115  0.69270220    -0.09700
H1811       H  0.97713481  0.20179288  0.71512716     0.08200
H1812       H  0.92302429  0.17262923  0.73023363     0.11900
H1813       H  0.88642336  0.22438592  0.69777493     0.11700
H1814       H  0.94038188  0.25320032  0.68232874     0.08200
C1815       C  0.80618658  0.05842452  0.69638133    -0.10900
C1816       C  0.77242019  0.03443362  0.69934250     0.06300
C1817       C  0.75311871  0.04276490  0.71042198    -0.09600
C1818       C  0.76734665  0.07414901  0.71851217    -0.11300
C1819       C  0.80119085  0.09771169  0.71580443    -0.01100
C1820       C  0.82039768  0.08984217  0.70449373    -0.10200
C1821       C  0.75707474  0.00137496  0.69034039     0.06300
H1822       H  0.72694121  0.02512800  0.71269990     0.08200
H1823       H  0.75212006  0.07988843  0.72718735     0.11700
H1824       H  0.84664653  0.10756781  0.70245199     0.11900
H1825       H  0.82178899  0.05266203  0.68803517     0.08200
C1826       C  0.76456620  0.49941654  0.67238714    -0.10900
C1827       C  0.74913742  0.46890075  0.66347799    -0.10200
C1828       C  0.72598743  0.43940605  0.67219100    -0.01100
C1829       C  0.71919775  0.44108232  0.69023836    -0.11300
C1830       C  0.73454625  0.47187863  0.69917474    -0.09700
H1831       H  0.78158578  0.52166384  0.66508806     0.08200
H1832       H  0.75513948  0.46853128  0.64960061     0.11900
H1833       H  0.70149669  0.41881417  0.69729964     0.17100
H1834       H  0.72842797  0.97253472  0.71308058     0.08200
C1835       C  0.79402884  0.24528117  0.70814573    -0.10900
C1836       C  0.76966815  0.22700110  0.69526359     0.06300
C1837       C  0.76309326  0.19456166  0.69098579    -0.09600
C1838       C  0.77937010  0.18018548  0.70006888    -0.11300
C1839       C  0.80250958  0.19804971  0.71351169    -0.01100
C1840       C  0.81054464  0.23111699  0.71699981    -0.10200
C1841       C  0.75143374  0.24199746  0.68636806     0.06300
H1842       H  0.74454215  0.17991980  0.68105268     0.08200
H1843       H  0.77288837  0.15468996  0.69713442     0.11700
H1844       H  0.82888052  0.24563590  0.72705285     0.11900
H1845       H  0.80025488  0.27057386  0.71141108     0.08200
C1846       C  0.73948545  0.25990235  0.69619945    -0.10900
C1847       C  0.72364840  0.27532444  0.68770966    -0.10200
C1848       C  0.71969069  0.27341855  0.66917719    -0.01100
C1849       C  0.73113942  0.25494589  0.65943402    -0.11300
C1850       C  0.74665730  0.23934334  0.66792120    -0.09700
H1851       H  0.74242537  0.26197923  0.71049092     0.08200
H1852       H  0.71502149  0.28917114  0.69561150     0.11900
H1853       H  0.72842150  0.25275610  0.64513504     0.11700
H1854       H  0.75574244  0.22593175  0.65997760     0.08200
C1855       C  0.56832966  0.18350275  0.57847841    -0.10900
C1856       C  0.58911414  0.18045321  0.56588289     0.06300
C1857       C  0.62360254  0.20289888  0.56619602    -0.09600
C1858       C  0.63713392  0.22820035  0.57887933    -0.11300
C1859       C  0.61628690  0.23170618  0.59125256    -0.01100
C1860       C  0.58179107  0.20915443  0.59099220    -0.10200
C1861       C  0.57488344  0.15366674  0.55253750     0.06300
H1862       H  0.64006683  0.20069645  0.55670469     0.08200
H1863       H  0.66380797  0.24548320  0.57875278     0.11700
H1864       H  0.56528038  0.21138957  0.60043673     0.11900
H1865       H  0.54161403  0.16641081  0.57841151     0.08200
C1866       C  0.55255663  0.12087988  0.55779569    -0.10900
C1867       C  0.53958054  0.09527897  0.54531827    -0.10200
C1868       C  0.54854253  0.10202679  0.52731582    -0.01100
C1869       C  0.57054546  0.13496731  0.52200278    -0.11300
C1870       C  0.58376526  0.16060944  0.53456606    -0.09700
H1871       H  0.54564597  0.11498274  0.57161803     0.08200
H1872       H  0.52265554  0.07011638  0.54983362     0.11900
H1873       H  0.57789146  0.14082289  0.50823352     0.11700
H1874       H  0.60080437  0.18588906  0.53026058     0.08200
C1875       C  0.80155158  0.42536188  0.56762230    -0.10900
C1876       C  0.81821596  0.40775022  0.56354355     0.06300
C1877       C  0.81019646  0.37843827  0.57286019    -0.09600
C1878       C  0.78561902  0.36664874  0.58596636    -0.11300
C1879       C  0.76887117  0.38420214  0.59014629    -0.01100
C1880       C  0.77720042  0.41379860  0.58091957    -0.10200
C1881       C  0.84501960  0.42054362  0.55015209     0.06300
H1882       H  0.82280100  0.36450252  0.56986300     0.08200
H1883       H  0.77965769  0.34370841  0.59277631     0.11700
H1884       H  0.76454943  0.42773376  0.58377659     0.11900
H1885       H  0.80772291  0.44825473  0.56069383     0.08200
C1886       C  0.83982285  0.42890110  0.53297865    -0.10900
C1887       C  0.86570633  0.44116453  0.52047019    -0.10200
C1888       C  0.89720387  0.44576369  0.52515400    -0.01100
C1889       C  0.90210003  0.43714670  0.54233812    -0.11300
C1890       C  0.87623172  0.42450298  0.55466510    -0.09700
H1891       H  0.81574809  0.42580256  0.52926323     0.08200
H1892       H  0.86137684  0.44780256  0.50735197     0.11900
H1893       H  0.92610380  0.44038943  0.54633521     0.11700
H1894       H  0.88077235  0.41839278  0.56787483     0.08200
C1895       C  0.57587496  0.41339530  0.53289752    -0.10900
C1896       C  0.58327969  0.42630675  0.55025884     0.06300
C1897       C  0.57752569  0.45236515  0.55499660    -0.09600
C1898       C  0.56392525  0.46485842  0.54275528    -0.11300
C1899       C  0.55617041  0.45188772  0.52540379    -0.01100
C1900       C  0.56270577  0.42633089  0.52047978    -0.10200
C1901       C  0.59610204  0.41222954  0.56369393     0.06300
H1902       H  0.58280732  0.46251927  0.56833284     0.08200
H1903       H  0.55933074  0.48468191  0.54694318     0.11700
H1904       H  0.55692879  0.41587338  0.50722078     0.11900
H1905       H  0.58031411  0.39334671  0.52897331     0.08200
C1906       C  0.57951204  0.37773627  0.56682809    -0.10900
C1907       C  0.59068067  0.36457795  0.58012680    -0.10200
C1908       C  0.61894152  0.38564817  0.59037167    -0.01100
C1909       C  0.63561044  0.42019536  0.58713401    -0.11300
C1910       C  0.62413029  0.43337074  0.57400609    -0.09700
H1911       H  0.55760178  0.36104875  0.55916612     0.08200
H1912       H  0.57744885  0.33782897  0.58220433     0.11900
H1913       H  0.65755433  0.43704971  0.59472180     0.11700
H1914       H  0.63731341  0.46008504  0.57177784     0.08200
Zn1915     Zn  0.69090467  0.81078421  0.62374881     1.49700
Zn1916     Zn  0.69089981  0.87886794  0.62472186     1.49400
Zn1917     Zn  0.62253346  0.81118241  0.62421950     1.49100
Zn1918     Zn  0.66770149  0.83135096  0.65976878     1.49500
O1919       O  0.66799414  0.83306986  0.63346302    -1.84200
O1920       O  0.73007185  0.84074952  0.60868467    -0.74800
O1921       O  0.66133678  0.88964641  0.60989300    -0.74600
O1922       O  0.61213094  0.77075875  0.60984926    -0.74100
O1923       O  0.72919073  0.88824112  0.60855144    -0.74800
O1924       O  0.66127059  0.77319949  0.60786760    -0.74400
O1925       O  0.61469340  0.84086098  0.60778710    -0.75000
O1926       O  0.61889064  0.80810251  0.66897644    -0.74400
O1927       O  0.70875541  0.91024321  0.64507425    -0.75100
O1928       O  0.58959997  0.79661267  0.64396397    -0.74500
O1929       O  0.69338368  0.87947154  0.66968376    -0.75000
O1930       O  0.69072329  0.80497656  0.66825829    -0.74900
O1931       O  0.70621151  0.79198986  0.64288599    -0.74700
C1932       C  0.74160131  0.87054505  0.60331308     0.77100
C1933       C  0.63225981  0.87142855  0.60347812     0.77600
C1934       C  0.63057059  0.75980447  0.60379006     0.76500
C1935       C  0.59087613  0.79606297  0.66082541     0.76900
C1936       C  0.70833254  0.90787770  0.66191552     0.78100
C1937       C  0.70462514  0.79106564  0.65974394     0.77100
C1938       C  0.83456477  0.66395298  0.71749097     0.45400
H1939       H  0.83499096  0.66323923  0.70274830    -0.03600
C1940       C  0.83343436  0.66536461  0.75215698     0.45500
H1941       H  0.83293542  0.66592302  0.76690148    -0.03600
C1942       C  0.81725399  0.62918389  0.72614028    -0.17300
C1943       C  0.86954732  0.68236230  0.72598730    -0.17100
C1944       C  0.81619049  0.68147095  0.72497664    -0.17400
C1945       C  0.81703706  0.62991140  0.74438172    -0.17400
C1946       C  0.86892287  0.68355490  0.74425305    -0.17000
C1947       C  0.81510532  0.68168170  0.74325317    -0.17300
Zn1948     Zn  0.69325346  0.81213082  0.84492435     1.49700
Zn1949     Zn  0.66684075  0.83244462  0.80977686     1.49400
Zn1950     Zn  0.62235779  0.80642549  0.84564840     1.49100
Zn1951     Zn  0.68759943  0.87725648  0.84559842     1.49500
O1952       O  0.66748303  0.83208659  0.83613748    -1.84200
O1953       O  0.70807676  0.79509404  0.82476876    -0.74800
O1954       O  0.61785135  0.80774642  0.80090384    -0.74600
O1955       O  0.61619998  0.76788069  0.86054562    -0.74100
O1956       O  0.69150937  0.80857734  0.79994865    -0.74800
O1957       O  0.66709176  0.77430634  0.86187731    -0.74400
O1958       O  0.58916068  0.78930921  0.82605653    -0.75000
O1959       O  0.65574735  0.88421083  0.86052782    -0.74400
O1960       O  0.69015045  0.88129665  0.80080870    -0.75100
O1961       O  0.61056583  0.83405895  0.86149519    -0.74500
O1962       O  0.70258452  0.91022672  0.82599886    -0.75000
O1963       O  0.72747850  0.88870288  0.86093668    -0.74900
O1964       O  0.73395462  0.84444986  0.85835535    -0.74700
C1965       C  0.70638806  0.79514768  0.80791837     0.77100
C1966       C  0.59004105  0.79176886  0.80922289     0.77600
C1967       C  0.63654434  0.75923852  0.86652510     0.76500
C1968       C  0.62629084  0.86462233  0.86604921     0.76900
C1969       C  0.70256073  0.90915812  0.80913045     0.78100
C1970       C  0.74335800  0.87344628  0.86446121     0.77100
Zn1971     Zn  0.87943238  0.69291330  0.34419224     1.49700
Zn1972     Zn  0.83304668  0.66831554  0.30879927     1.49400
Zn1973     Zn  0.81217772  0.62419475  0.34476708     1.49100
Zn1974     Zn  0.81056451  0.69190783  0.34412433     1.49500
O1975       O  0.83379516  0.66931590  0.33514082    -1.84200
O1976       O  0.91149649  0.70568576  0.32419907    -0.74800
O1977       O  0.80676198  0.61937765  0.30004782    -0.74600
O1978       O  0.84327649  0.61508777  0.35937693    -0.74100
O1979       O  0.88147013  0.69049104  0.29932484    -0.74800
O1980       O  0.88879322  0.66486039  0.36102377    -0.74400
O1981       O  0.79261461  0.59050267  0.32526094    -0.75000
O1982       O  0.77161399  0.66253446  0.35971769    -0.74400
O1983       O  0.81009454  0.69394694  0.29926271    -0.75100
O1984       O  0.77535452  0.61657897  0.36151845    -0.74500
O1985       O  0.79478129  0.70855695  0.32417931    -0.75000
O1986       O  0.84032433  0.73152789  0.35912816    -0.74900
O1987       O  0.88967992  0.73442585  0.35774496    -0.74700
C1988       C  0.90967119  0.70378948  0.30734951     0.77100
C1989       C  0.79215835  0.59153264  0.30837467     0.77600
C1990       C  0.87237775  0.63430910  0.36552611     0.76500
C1991       C  0.76185196  0.63365988  0.36609943     0.76900
C1992       C  0.79621306  0.70832456  0.30732039     0.78100
C1993       C  0.87110327  0.74568467  0.36323222     0.77100
C1994       C  0.66594790  0.83583773  0.21650944     0.45400
H1995       H  0.66600132  0.83626013  0.20175692    -0.03600
C1996       C  0.66577382  0.83477642  0.25119471     0.45500
H1997       H  0.66562322  0.83424853  0.26594618    -0.03600
C1998       C  0.63080704  0.81699259  0.22460725    -0.17300
C1999       C  0.68456590  0.81906521  0.22440600    -0.17100
C2000       C  0.68236309  0.87066178  0.22506259    -0.17400
C2001       C  0.63066705  0.81685005  0.24285913    -0.17400
C2002       C  0.68408738  0.81802586  0.24266644    -0.17000
C2003       C  0.68275168  0.87021664  0.24333941    -0.17300
Zn2004     Zn  0.78584547  0.64475891  0.14139294     1.49700
Zn2005     Zn  0.83140165  0.66665507  0.10761740     1.49400
Zn2006     Zn  0.85622347  0.71370305  0.14088112     1.49100
Zn2007     Zn  0.85537345  0.64321610  0.14063659     1.49500
O2008       O  0.83226968  0.66708558  0.13309007    -1.84200
O2009       O  0.75248846  0.62532991  0.12106881    -0.74800
O2010       O  0.84737766  0.71097719  0.09744776    -0.74600
O2011       O  0.82560030  0.72407967  0.15548310    -0.74100
O2012       O  0.78665341  0.63779130  0.09811946    -0.74800
O2013       O  0.77651695  0.67706578  0.15502426    -0.74400
O2014       O  0.87120628  0.74576574  0.11996261    -0.75000
O2015       O  0.89622748  0.67401454  0.15514262    -0.74400
O2016       O  0.85910036  0.64992724  0.09717327    -0.75100
O2017       O  0.89729402  0.72274233  0.15494931    -0.74500
O2018       O  0.87218095  0.62771213  0.11960017    -0.75000
O2019       O  0.82383759  0.60260762  0.15502358    -0.74900
O2020       O  0.77710079  0.60544583  0.15663097    -0.74700
C2021       C  0.75744325  0.62368280  0.10455146     0.77100
C2022       C  0.86411276  0.74037352  0.10350581     0.77600
C2023       C  0.79462166  0.70763272  0.15947648     0.76500
C2024       C  0.91012667  0.70484933  0.15934251     0.76900
C2025       C  0.87259408  0.63380365  0.10307121     0.78100
C2026       C  0.79372753  0.59090688  0.16026861     0.77100
Zn2027     Zn  0.54723205  0.52052617  0.97707109     1.49700
Zn2028     Zn  0.97949805  0.52471229  0.97634324     1.49400
Zn2029     Zn  0.97566112  0.95298405  0.97693616     1.49100
Zn2030     Zn  0.49960840  0.49989345  0.01027785     1.49500
O2031       O  0.50057964  0.49961893  0.98484701    -1.84200
O2032       O  0.55938952  0.56162026  0.96258883    -0.74800
O2033       O  0.94152341  0.99594297  0.95986598    -0.74600
O2034       O  0.50468768  0.94187723  0.96194085    -0.74100
O2035       O  0.51261752  0.56435650  0.96219311    -0.74800
O2036       O  0.55376827  0.98877536  0.96147782    -0.74400
O2037       O  0.93783793  0.94612069  0.96116420    -0.75000
O2038       O  0.97130552  0.95497153  0.02024749    -0.74400
O2039       O  0.96226308  0.54162827  0.99646985    -0.75100
O2040       O  0.95710934  0.92027237  0.99738635    -0.74500
O2041       O  0.98231901  0.52795560  0.01973031    -0.75000
O2042       O  0.54411700  0.51642608  0.02051263    -0.74900
O2043       O  0.57934536  0.53334491  0.99780416    -0.74700
C2044       C  0.54300618  0.57572281  0.95766454     0.77100
C2045       C  0.92790621  0.96544734  0.95514070     0.77600
C2046       C  0.53480720  0.95864016  0.95662551     0.76500
C2047       C  0.95691971  0.92561295  0.01396976     0.76900
C2048       C  0.96710522  0.54190966  0.01314233     0.78100
C2049       C  0.57355604  0.52926744  0.01441986     0.77100
Zn2050     Zn  0.50078155  0.00003203  0.50994547     1.49700
Zn2051     Zn  0.52436344  0.97828942  0.47605719     1.49400
Zn2052     Zn  0.95505814  0.98044110  0.47604090     1.49100
Zn2053     Zn  0.52526620  0.54862304  0.47694677     1.49500
O2054       O  0.50138215  0.00181820  0.48446179    -1.84200
O2055       O  0.52652033  0.97989663  0.51953373    -0.74800
O2056       O  0.99385634  0.94056722  0.45996094    -0.74600
O2057       O  0.92131780  0.96192695  0.49620868    -0.74100
O2058       O  0.54081537  0.96049952  0.49620101    -0.74800
O2059       O  0.95500692  0.97420390  0.51941164    -0.74400
O2060       O  0.94697465  0.94322725  0.45930002    -0.75000
O2061       O  0.99617127  0.55897496  0.46131025    -0.74400
O2062       O  0.56437147  0.50945345  0.46146603    -0.75100
O2063       O  0.94665067  0.51266581  0.46199289    -0.74500
O2064       O  0.56566261  0.55817802  0.46257353    -0.75000
O2065       O  0.54019261  0.58018714  0.49788398    -0.74900
O2066       O  0.52036011  0.54486410  0.52047134    -0.74700
C2067       C  0.54048428  0.96463896  0.51292631     0.77100
C2068       C  0.96436032  0.93028724  0.45416457     0.77600
C2069       C  0.92586278  0.96122269  0.51285264     0.76500
C2070       C  0.96555675  0.54250797  0.45674340     0.76900
C2071       C  0.57769665  0.54015786  0.45722639     0.78100
C2072       C  0.53568246  0.57440475  0.51447667     0.77100
C2073       C  0.71022485  0.58237265  0.06275713    -0.10900
C2074       C  0.67807592  0.57646866  0.06678379     0.06300
C2075       C  0.67148266  0.58418103  0.08388770    -0.09600
C2076       C  0.69694446  0.59849415  0.09654460    -0.11300
C2077       C  0.72937572  0.60557655  0.09219768    -0.01100
C2078       C  0.73561403  0.59685729  0.07529737    -0.10200
C2079       C  0.65177803  0.56307430  0.05302270     0.06300
H2080       H  0.64693781  0.58013625  0.08730181     0.08200
H2081       H  0.69155554  0.60506613  0.10946154     0.11700
H2082       H  0.76031854  0.60158746  0.07165813     0.11900
H2083       H  0.71582840  0.57596281  0.04985111     0.08200
C2084       C  0.65929528  0.57416940  0.03532759    -0.10900
C2085       C  0.63410670  0.56245942  0.02250650    -0.10200
C2086       C  0.60101841  0.53975264  0.02724308    -0.01100
C2087       C  0.59371798  0.52810643  0.04482519    -0.11300
C2088       C  0.61884339  0.53956982  0.05755810    -0.09700
H2089       H  0.68445792  0.59259707  0.03150195     0.08200
H2090       H  0.64032569  0.57192460  0.00906902     0.11900
H2091       H  0.56844227  0.51026590  0.04881677     0.11700
H2092       H  0.61245892  0.53006759  0.07098021     0.08200
C2093       C  0.87639443  0.78704161  0.06062611    -0.10900
C2094       C  0.90038071  0.81963310  0.06541869     0.06300
C2095       C  0.91152147  0.82646430  0.08312753    -0.09600
C2096       C  0.89923827  0.80093333  0.09574377    -0.11300
C2097       C  0.87574543  0.76819542  0.09080742    -0.01100
C2098       C  0.86423251  0.76160715  0.07316264    -0.10200
C2099       C  0.91375430  0.84633306  0.05192141     0.06300
H2100       H  0.93026857  0.85138543  0.08712728     0.08200
H2101       H  0.90863962  0.80666288  0.10921556     0.11700
H2102       H  0.84591487  0.73665673  0.06895014     0.11900
H2103       H  0.86690637  0.78120987  0.04717130     0.08200
C2104       C  0.92141217  0.84024009  0.03470822    -0.10900
C2105       C  0.93452244  0.86570885  0.02206938    -0.10200
C2106       C  0.94043566  0.89768777  0.02652310    -0.01100
C2107       C  0.93227580  0.90357272  0.04363552    -0.11300
C2108       C  0.91897742  0.87813121  0.05618367    -0.09700
H2109       H  0.91796719  0.81599870  0.03114485     0.08200
H2110       H  0.94092872  0.86066678  0.00902650     0.11900
H2111       H  0.93633833  0.92797533  0.04737833     0.11700
H2112       H  0.91268804  0.88332175  0.06922004     0.08200
C2113       C  0.91475793  0.57532449  0.03374006    -0.10900
C2114       C  0.92885617  0.58408013  0.05085359     0.06300
C2115       C  0.95649173  0.58040960  0.05496861    -0.09600
C2116       C  0.96921868  0.56744751  0.04247554    -0.11300
C2117       C  0.95482966  0.55813525  0.02550269    -0.01100
C2118       C  0.92778179  0.56261423  0.02111725    -0.10200
C2119       C  0.91494641  0.59705964  0.06441356     0.06300
H2120       H  0.96839360  0.58765279  0.06785745     0.08200
H2121       H  0.99034194  0.56456215  0.04615957     0.11700
H2122       H  0.91608594  0.55532911  0.00817705     0.11900
H2123       H  0.89318755  0.57755582  0.03024301     0.08200
C2124       C  0.90379489  0.61913646  0.05950652    -0.10900
C2125       C  0.89056749  0.63130468  0.07217674    -0.10200
C2126       C  0.88825232  0.62178597  0.09010078    -0.01100
C2127       C  0.89980919  0.60006119  0.09511287    -0.11300
C2128       C  0.91295594  0.58772099  0.08236548    -0.09700
H2129       H  0.90557626  0.62729784  0.04587649     0.08200
H2130       H  0.88204475  0.64817691  0.06785627     0.11900
H2131       H  0.89818194  0.59217846  0.10878877     0.11700
H2132       H  0.92101313  0.57040051  0.08651542     0.08200
C2133       C  0.54639846  0.75013181  0.20768819    -0.10900
C2134       C  0.53894422  0.76761749  0.19489309     0.06300
C2135       C  0.56312498  0.80095639  0.19114071    -0.09600
C2136       C  0.59349178  0.81669043  0.20038173    -0.11300
C2137       C  0.60015293  0.79947323  0.21358936    -0.01100
C2138       C  0.57674729  0.76583345  0.21684348    -0.10200
C2139       C  0.50579913  0.75138004  0.18585846     0.06300
H2140       H  0.55850667  0.81495214  0.18112073     0.08200
H2141       H  0.61135159  0.84260336  0.19760610     0.11700
H2142       H  0.58167472  0.75191236  0.22678320     0.11900
H2143       H  0.52837936  0.72456585  0.21102842     0.08200
C2144       C  0.48988458  0.71743117  0.18107234    -0.10900
C2145       C  0.95858686  0.70217212  0.17280690    -0.10200
C2146       C  0.94244611  0.72049897  0.16903842    -0.01100
C2147       C  0.95825820  0.75437308  0.17391013    -0.11300
C2148       C  0.98949032  0.76959017  0.18224866    -0.09700
H2149       H  0.50186064  0.70272824  0.18346435     0.08200
H2150       H  0.94726526  0.67609797  0.16912481     0.11900
H2151       H  0.94656950  0.76924938  0.17121614     0.11700
H2152       H  0.00068926  0.79559280  0.18604033     0.08200
C2153       C  0.73372934  0.93762071  0.19144949    -0.10900
C2154       C  0.72683328  0.96311070  0.19616018     0.06300
C2155       C  0.70338734  0.95692502  0.20966540    -0.09600
C2156       C  0.68784220  0.92635210  0.21850824    -0.11300
C2157       C  0.69597662  0.90159989  0.21434198    -0.01100
C2158       C  0.71839133  0.90711562  0.20046456    -0.10200
C2159       C  0.74424110  0.99614783  0.18720846     0.06300
H2160       H  0.69763728  0.97601116  0.21373330     0.08200
H2161       H  0.67005581  0.92232995  0.22894314     0.11700
H2162       H  0.72479231  0.88821123  0.19696824     0.11900
H2163       H  0.75110317  0.94130961  0.18084923     0.08200
C2164       C  0.77809449  0.51086457  0.18265738    -0.10900
C2165       C  0.79442990  0.54194042  0.17424384    -0.10200
C2166       C  0.77715318  0.55903263  0.17022614    -0.01100
C2167       C  0.74325056  0.54444771  0.17495231    -0.11300
C2168       C  0.72690820  0.51334876  0.18329558    -0.09700
H2169       H  0.79220982  0.49852189  0.18574721     0.08200
H2170       H  0.82053812  0.55243803  0.17076782     0.11900
H2171       H  0.72909705  0.55678698  0.17193296     0.11700
H2172       H  0.70083596  0.00269931  0.18651995     0.08200
C2173       C  0.78284581  0.77559219  0.18089655    -0.10900
C2174       C  0.74878637  0.75818890  0.18551671     0.06300
C2175       C  0.73011892  0.72380896  0.18182498    -0.09600
C2176       C  0.74507622  0.70729546  0.17363763    -0.11300
C2177       C  0.77911463  0.72473768  0.16897765    -0.01100
C2178       C  0.79782490  0.75907588  0.17275723    -0.10200
C2179       C  0.73299520  0.77564044  0.19450691     0.06300
H2180       H  0.70398311  0.70951381  0.18547543     0.08200
H2181       H  0.72990009  0.68085258  0.17090741     0.11700
H2182       H  0.82402091  0.77336803  0.16921667     0.11900
H2183       H  0.79787416  0.80214917  0.18333389     0.08200
C2184       C  0.75065161  0.80007676  0.20750316    -0.10900
C2185       C  0.73536006  0.81522800  0.21665049    -0.10200
C2186       C  0.70195191  0.80597017  0.21319301    -0.01100
C2187       C  0.68461905  0.78266867  0.19975565    -0.11300
C2188       C  0.69995311  0.76753213  0.19052091    -0.09700
H2189       H  0.77598848  0.80677518  0.21102518     0.08200
H2190       H  0.74931827  0.83353544  0.22681968     0.11900
H2191       H  0.65886181  0.77534221  0.19684664     0.11700
H2192       H  0.68586859  0.74930166  0.18035351     0.08200
C2193       C  0.74634986  0.95656248  0.25966399    -0.10900
C2194       C  0.72770004  0.96335983  0.27205753     0.06300
C2195       C  0.69487514  0.93801572  0.27600616    -0.09600
C2196       C  0.68072036  0.90706629  0.26728934    -0.11300
C2197       C  0.69906923  0.90095432  0.25444782    -0.01100
C2198       C  0.73227849  0.92564312  0.25106246    -0.10200
C2199       C  0.74276277  0.99656844  0.28100190     0.06300
H2200       H  0.67982161  0.94246388  0.28546643     0.08200
H2201       H  0.65502382  0.88841158  0.27003345     0.11700
H2202       H  0.74702892  0.92127031  0.24135542     0.11900
H2203       H  0.77190430  0.97518665  0.25662801     0.08200
C2204       C  0.73827952  0.49867664  0.29927135    -0.10900
C2205       C  0.75390244  0.52953499  0.30795811    -0.10200
C2206       C  0.77427894  0.55927550  0.29858688    -0.01100
C2207       C  0.77796189  0.55737140  0.28016402    -0.11300
C2208       C  0.76248555  0.52633727  0.27146907    -0.09700
H2209       H  0.72315056  0.97637505  0.30700338     0.08200
H2210       H  0.75027408  0.52999037  0.32214208     0.11900
H2211       H  0.79332407  0.57975112  0.27253624     0.11700
H2212       H  0.76600760  0.52558662  0.25729294     0.08200
C2213       C  0.00198304  0.74120442  0.29759675    -0.10900
C2214       C  0.50384439  0.74918854  0.27951856     0.06300
C2215       C  0.97409854  0.74069858  0.27029841    -0.09600
C2216       C  0.94317655  0.72500892  0.27908856    -0.11300
C2217       C  0.94153248  0.71789298  0.29730902    -0.01100
C2218       C  0.97128689  0.72585613  0.30637318    -0.10200
C2219       C  0.53690405  0.76723287  0.27057384     0.06300
H2220       H  0.47476193  0.74623776  0.25628320     0.08200
H2221       H  0.92073692  0.71918382  0.27174775     0.11700
H2222       H  0.97097532  0.72060110  0.32040394     0.11900
H2223       H  0.02442471  0.74768468  0.30510612     0.08200
C2224       C  0.54425266  0.79393279  0.25906513    -0.10900
C2225       C  0.57533034  0.81099976  0.25067460    -0.10200
C2226       C  0.59957703  0.80157972  0.25353501    -0.01100
C2227       C  0.59280028  0.77562154  0.26538291    -0.11300
C2228       C  0.56165965  0.75848920  0.27380243    -0.09700
H2229       H  0.52599865  0.80170583  0.25661266     0.08200
H2230       H  0.58028017  0.83117851  0.24163949     0.11900
H2231       H  0.61112580  0.76783543  0.26758963     0.11700
H2232       H  0.55665091  0.73790459  0.28253186     0.08200
C2233       C  0.75995086  0.73659145  0.27011686    -0.10900
C2234       C  0.74972556  0.75641475  0.27951769     0.06300
C2235       C  0.75589102  0.76090481  0.29782893    -0.09600
C2236       C  0.77132901  0.74560586  0.30660640    -0.11300
C2237       C  0.78119199  0.72539093  0.29734460    -0.01100
C2238       C  0.77567769  0.72134083  0.27893145    -0.10200
C2239       C  0.73210410  0.77191290  0.27046761     0.06300
H2240       H  0.74804386  0.77566019  0.30550305     0.08200
H2241       H  0.77528564  0.74947916  0.32078639     0.11700
H2242       H  0.78302943  0.70602838  0.27140979     0.11900
H2243       H  0.75588848  0.73298482  0.25593244     0.08200
C2244       C  0.73931622  0.80453076  0.27482761    -0.10900
C2245       C  0.72271403  0.81905855  0.26630349    -0.10200
C2246       C  0.69878891  0.80134914  0.25320414    -0.01100
C2247       C  0.69070661  0.76841985  0.24925251    -0.11300
C2248       C  0.70733787  0.75392761  0.25770250    -0.09700
H2249       H  0.75837353  0.81911708  0.28454128     0.08200
H2250       H  0.72938830  0.84452908  0.26947000     0.11900
H2251       H  0.67192372  0.75414738  0.23934587     0.11700
H2252       H  0.70065807  0.72854819  0.25433210     0.08200
C2253       C  0.64985213  0.60263115  0.42910742    -0.10900
C2254       C  0.65976784  0.58200623  0.42039387     0.06300
C2255       C  0.64360215  0.54786376  0.42467742    -0.09600
C2256       C  0.61771163  0.53453034  0.43707455    -0.11300
C2257       C  0.60710326  0.55493452  0.44534808    -0.01100
C2258       C  0.62370476  0.58921573  0.44139598    -0.10200
C2259       C  0.68621685  0.59570727  0.40656217     0.06300
H2260       H  0.65021228  0.53113064  0.41805275     0.08200
H2261       H  0.60536019  0.50800089  0.43977555     0.11700
H2262       H  0.61624857  0.60564732  0.44763797     0.11900
H2263       H  0.66221722  0.62915035  0.42640126     0.08200
C2264       C  0.68898752  0.62064457  0.39482122    -0.10900
C2265       C  0.71343033  0.63292436  0.38156905    -0.10200
C2266       C  0.73521475  0.62012641  0.37961879    -0.01100
C2267       C  0.73243120  0.59519175  0.39128534    -0.11300
C2268       C  0.70841409  0.58332770  0.40469735    -0.09700
H2269       H  0.67194455  0.63033953  0.39567451     0.08200
H2270       H  0.71507821  0.65218495  0.37274608     0.11900
H2271       H  0.74931723  0.58530733  0.39028952     0.11700
H2272       H  0.70750271  0.56467803  0.41372570     0.08200
C2273       C  0.93285637  0.82083340  0.38981470    -0.10900
C2274       C  0.91142974  0.82747229  0.40018636     0.06300
C2275       C  0.87673825  0.80805428  0.39753838    -0.09600
C2276       C  0.86376688  0.78225540  0.38508224    -0.11300
C2277       C  0.88514885  0.77496706  0.37515240    -0.01100
C2278       C  0.91984044  0.79470559  0.37751497    -0.10200
C2279       C  0.92506877  0.85391059  0.41402876     0.06300
H2280       H  0.85945912  0.81207647  0.40546687     0.08200
H2281       H  0.83689298  0.76730927  0.38365901     0.11700
H2282       H  0.93693436  0.78979759  0.36995631     0.11900
H2283       H  0.95971906  0.83575552  0.39122883     0.08200
C2284       C  0.95318889  0.85977329  0.42406746    -0.10900
C2285       C  0.96581570  0.88439060  0.43720349    -0.10200
C2286       C  0.95034082  0.90338601  0.44075428    -0.01100
C2287       C  0.92209464  0.89739459  0.43084841    -0.11300
C2288       C  0.90973135  0.87309054  0.41755938    -0.09700
H2289       H  0.96523229  0.84504030  0.42195790     0.08200
H2290       H  0.98759981  0.88841497  0.44464644     0.11900
H2291       H  0.90988358  0.91193992  0.43312379     0.11700
H2292       H  0.88841395  0.86967984  0.40988925     0.08200
C2293       C  0.88332740  0.57510349  0.39591216    -0.10900
C2294       C  0.91256336  0.59701806  0.40526475     0.06300
C2295       C  0.92893306  0.63118533  0.40100072    -0.09600
C2296       C  0.91635469  0.64311926  0.38778682    -0.11300
C2297       C  0.88689641  0.62124923  0.37863568    -0.01100
C2298       C  0.87055834  0.58709667  0.38282341    -0.10200
C2299       C  0.92611104  0.58421280  0.41922730     0.06300
H2300       H  0.95117890  0.64889401  0.40809202     0.08200
H2301       H  0.92937760  0.66963759  0.38500590     0.11700
H2302       H  0.84781994  0.56958807  0.37601174     0.11900
H2303       H  0.87040959  0.54855374  0.39856149     0.08200
C2304       C  0.90450831  0.55741939  0.43019331    -0.10900
C2305       C  0.91728711  0.54425733  0.44263129    -0.10200
C2306       C  0.95195222  0.55791807  0.44458692    -0.01100
C2307       C  0.97357713  0.58537943  0.43408477    -0.11300
C2308       C  0.96081902  0.59821595  0.42146528    -0.09700
H2309       H  0.87767246  0.54651464  0.42915502     0.08200
H2310       H  0.90000977  0.52325205  0.45065854     0.11900
H2311       H  0.00041668  0.59626804  0.43519067     0.11700
H2312       H  0.97824054  0.61850365  0.41310684     0.08200
C2313       C  0.57851270  0.68353662  0.89355911    -0.10900
C2314       C  0.60026258  0.68281063  0.90640221     0.06300
C2315       C  0.63450801  0.70651785  0.90540502    -0.09600
C2316       C  0.64655467  0.73072304  0.89204278    -0.11300
C2317       C  0.62452429  0.73192722  0.87958688    -0.01100
C2318       C  0.59045820  0.70799366  0.88040656    -0.10200
C2319       C  0.58700637  0.65730779  0.92069430     0.06300
H2320       H  0.65187258  0.70687686  0.91518411     0.08200
H2321       H  0.67291568  0.74916473  0.89180901     0.11700
H2322       H  0.57300169  0.70821986  0.87087405     0.11900
H2323       H  0.55215904  0.66512017  0.89363402     0.08200
C2324       C  0.55544648  0.64719666  0.92816972    -0.10900
C2325       C  0.54162268  0.62138960  0.94056489    -0.10200
C2326       C  0.55914179  0.60522918  0.94590722    -0.01100
C2327       C  0.59135058  0.61631177  0.93906559    -0.11300
C2328       C  0.60511663  0.64204286  0.92655825    -0.09700
H2329       H  0.54120516  0.65903214  0.92430882     0.08200
H2330       H  0.51689761  0.61369504  0.94570206     0.11900
H2331       H  0.60553256  0.60441785  0.94294582     0.11700
H2332       H  0.62941175  0.64910782  0.92101772     0.08200
C2333       C  0.82026930  0.88928222  0.89014414    -0.10900
C2334       C  0.82467029  0.91527984  0.90155910     0.06300
C2335       C  0.80317266  0.92852511  0.89997095    -0.09600
C2336       C  0.77747251  0.91567631  0.88746816    -0.11300
C2337       C  0.77248689  0.88906348  0.87642919    -0.01100
C2338       C  0.79431947  0.87618045  0.87775962    -0.10200
C2339       C  0.85106367  0.92809320  0.91535185     0.06300
H2340       H  0.80557957  0.94819804  0.90874224     0.08200
H2341       H  0.76082038  0.92587626  0.88685866     0.11700
H2342       H  0.79116867  0.85577956  0.86933730     0.11900
H2343       H  0.83682711  0.87898427  0.89081761     0.08200
C2344       C  0.85823050  0.90613484  0.92475780    -0.10900
C2345       C  0.88287124  0.91818852  0.93786571    -0.10200
C2346       C  0.90069098  0.95242278  0.94192419    -0.01100
C2347       C  0.89335425  0.97433576  0.93262456    -0.11300
C2348       C  0.86890216  0.96231672  0.91943028    -0.09700
H2349       H  0.84452173  0.87955528  0.92213972     0.08200
H2350       H  0.88795325  0.90067359  0.94481310     0.11900
H2351       H  0.90692127  0.00090018  0.93530963     0.11700
H2352       H  0.86431509  0.97992641  0.91223734     0.08200
C2353       C  0.60997888  0.92448081  0.89259179    -0.10900
C2354       C  0.58411930  0.90269953  0.90397321     0.06300
C2355       C  0.57090177  0.86809355  0.90201562    -0.09600
C2356       C  0.58386402  0.85562773  0.88926370    -0.11300
C2357       C  0.61054212  0.87753284  0.87837866    -0.01100
C2358       C  0.62321622  0.91204637  0.88002400    -0.10200
C2359       C  0.57153310  0.91617364  0.91802526     0.06300
H2360       H  0.55121632  0.85065295  0.91067841     0.08200
H2361       H  0.57374776  0.82889285  0.88833538     0.11700
H2362       H  0.64353274  0.92948178  0.87166004     0.11900
H2363       H  0.62011978  0.95121892  0.89343129     0.08200
C2364       C  0.59368322  0.94558019  0.92714452    -0.10900
C2365       C  0.58185879  0.95901896  0.93994251    -0.10200
C2366       C  0.54766662  0.94314839  0.94405350    -0.01100
C2367       C  0.52560237  0.91323227  0.93532611    -0.11300
C2368       C  0.53739012  0.89996405  0.92238491    -0.09700
H2369       H  0.62024549  0.95824474  0.92441664     0.08200
H2370       H  0.59949595  0.98197212  0.94653647     0.11900
H2371       H  0.49905795  0.90052764  0.93813506     0.11700
H2372       H  0.51961936  0.87747405  0.91548946     0.08200
C2373       C  0.95500377  0.74882595  0.76019815    -0.10900
C2374       C  0.96152834  0.73123384  0.77332391     0.06300
C2375       C  0.93603971  0.69890121  0.77791155    -0.09600
C2376       C  0.90527458  0.68400204  0.76904308    -0.11300
C2377       C  0.89945746  0.70110639  0.75541629    -0.01100
C2378       C  0.92415168  0.73404792  0.75148224    -0.10200
C2379       C  0.99470671  0.74655218  0.78225034     0.06300
H2380       H  0.94029594  0.68467779  0.78795767     0.08200
H2381       H  0.88657768  0.65859888  0.77228078     0.11700
H2382       H  0.91992040  0.74794901  0.74122539     0.11900
H2383       H  0.97379525  0.77400306  0.75665179     0.08200
C2384       C  0.52457954  0.76476071  0.77256109    -0.10900
C2385       C  0.55572753  0.77917475  0.78113305    -0.10200
C2386       C  0.55757381  0.77582139  0.79958246    -0.01100
C2387       C  0.52758680  0.75748200  0.80916902    -0.11300
C2388       C  0.49665201  0.74306192  0.80063205    -0.09700
H2389       H  0.52386544  0.76756291  0.75832086     0.08200
H2390       H  0.57827501  0.79308593  0.77335640     0.11900
H2391       H  0.52789177  0.75438105  0.82340415     0.11700
H2392       H  0.47415813  0.72959095  0.80850707     0.08200
C2393       C  0.74003372  0.97443743  0.77251197    -0.10900
C2394       C  0.75014674  0.50414916  0.78206567     0.06300
C2395       C  0.74310294  0.00214607  0.80031456    -0.09600
C2396       C  0.72727888  0.97125763  0.80887918    -0.11300
C2397       C  0.71773486  0.94145953  0.79943677    -0.01100
C2398       C  0.72389140  0.94336134  0.78108355    -0.10200
C2399       C  0.76853075  0.53724667  0.77320146     0.06300
H2400       H  0.75084631  0.52458620  0.80804268     0.08200
H2401       H  0.72285343  0.97083252  0.82302763     0.11700
H2402       H  0.71678540  0.92094806  0.77342266     0.11900
H2403       H  0.74470282  0.97524597  0.75837386     0.08200
C2404       C  0.79447588  0.54395186  0.76121646    -0.10900
C2405       C  0.81146412  0.57477219  0.75261530    -0.10200
C2406       C  0.80247397  0.59933759  0.75554404    -0.01100
C2407       C  0.77751030  0.59330775  0.76801669    -0.11300
C2408       C  0.76066119  0.56250885  0.77678470    -0.09700
H2409       H  0.80164945  0.52533225  0.75850656     0.08200
H2410       H  0.83110641  0.57915669  0.74327459     0.11900
H2411       H  0.77015814  0.61189406  0.77042879     0.11700
H2412       H  0.74078752  0.55806926  0.78597012     0.08200
C2413       C  0.73410926  0.75850437  0.77049121    -0.10900
C2414       C  0.75226850  0.74645418  0.77997536     0.06300
C2415       C  0.75536699  0.75098207  0.79842255    -0.09600
C2416       C  0.74064278  0.76695226  0.80723894    -0.11300
C2417       C  0.72234242  0.77897912  0.79789206    -0.01100
C2418       C  0.71937754  0.77475305  0.77936377    -0.10200
C2419       C  0.76788609  0.72899898  0.77087316     0.06300
H2420       H  0.76876206  0.74162483  0.80613950     0.08200
H2421       H  0.74354846  0.76968856  0.82151369     0.11700
H2422       H  0.70553533  0.78375449  0.77177252     0.11900
H2423       H  0.73158026  0.75562604  0.75620729     0.08200
C2424       C  0.75046758  0.70505063  0.75765772    -0.10900
C2425       C  0.76515994  0.68848681  0.74926893    -0.10200
C2426       C  0.79785892  0.69610989  0.75362300    -0.01100
C2427       C  0.81490929  0.71922955  0.76716894    -0.11300
C2428       C  0.80010457  0.73556273  0.77570031    -0.09700
H2429       H  0.72538049  0.69893083  0.75392323     0.08200
H2430       H  0.75125610  0.67018501  0.73908819     0.11900
H2431       H  0.84013322  0.72550696  0.77071541     0.11700
H2432       H  0.81420481  0.75395384  0.78580368     0.08200
C2433       C  0.52639866  0.76131491  0.69814195    -0.10900
C2434       C  0.99623403  0.74822190  0.68857330     0.06300
C2435       C  0.49763848  0.75169241  0.67004930    -0.09600
C2436       C  0.52834636  0.76753022  0.66125506    -0.11300
C2437       C  0.55863897  0.78045865  0.67071370    -0.01100
C2438       C  0.55731851  0.77737882  0.68930818    -0.10200
C2439       C  0.96325778  0.73036295  0.69771246     0.06300
H2440       H  0.97493984  0.74156731  0.66227431     0.08200
H2441       H  0.52823227  0.76929003  0.64692158     0.11700
H2442       H  0.58010359  0.78709733  0.69700108     0.11900
H2443       H  0.52607921  0.75929716  0.71247439     0.08200
C2444       C  0.95768048  0.70727068  0.71125324    -0.10900
C2445       C  0.92669883  0.69041909  0.71980615    -0.10200
C2446       C  0.90087620  0.69690457  0.71533151    -0.01100
C2447       C  0.90594654  0.71909708  0.70143691    -0.11300
C2448       C  0.93684308  0.73568519  0.69270393    -0.09700
H2449       H  0.97722371  0.70205824  0.71514273     0.08200
H2450       H  0.92311860  0.67283937  0.73024532     0.11900
H2451       H  0.88640502  0.72447579  0.69777075     0.11700
H2452       H  0.94036279  0.75334555  0.68232540     0.08200
C2453       C  0.80628934  0.55852617  0.69627182    -0.10900
C2454       C  0.77254078  0.53449947  0.69924927     0.06300
C2455       C  0.75322573  0.54279876  0.71033712    -0.09600
C2456       C  0.76742941  0.57417519  0.71843184    -0.11300
C2457       C  0.80126504  0.59776161  0.71572432    -0.01100
C2458       C  0.82047940  0.58993692  0.70439250    -0.10200
C2459       C  0.75722156  0.50142442  0.69026662     0.06300
H2460       H  0.72705885  0.52513729  0.71262365     0.08200
H2461       H  0.75219414  0.57988358  0.72711894     0.11700
H2462       H  0.84671952  0.60768592  0.70234566     0.11900
H2463       H  0.82189849  0.55279213  0.68791328     0.08200
C2464       C  0.76446361  0.99939608  0.67246503    -0.10900
C2465       C  0.74904839  0.96889963  0.66353826    -0.10200
C2466       C  0.72586580  0.93939309  0.67222870    -0.01100
C2467       C  0.71901308  0.94104063  0.69026953    -0.11300
C2468       C  0.73434802  0.97181963  0.69922411    -0.09700
H2469       H  0.78151818  0.02165264  0.66518288     0.08200
H2470       H  0.75509567  0.96855316  0.64966677     0.11900
H2471       H  0.70128055  0.91876135  0.69731292     0.17100
H2472       H  0.72866723  0.47261612  0.71303664     0.08200
C2473       C  0.79390884  0.74522788  0.70820352    -0.10900
C2474       C  0.76956255  0.72696123  0.69531374     0.06300
C2475       C  0.76301650  0.69454130  0.69101121    -0.09600
C2476       C  0.77931771  0.68017075  0.70007421    -0.11300
C2477       C  0.80245405  0.69802332  0.71351928    -0.01100
C2478       C  0.81045315  0.73107165  0.71703604    -0.10200
C2479       C  0.75133586  0.74196260  0.68642045     0.06300
H2480       H  0.74447573  0.67991386  0.68107133     0.08200
H2481       H  0.77285933  0.65468751  0.69712171     0.11700
H2482       H  0.82877914  0.74557674  0.72709551     0.11900
H2483       H  0.80010613  0.77050530  0.71148808     0.08200
C2484       C  0.73930752  0.75979165  0.69625682    -0.10900
C2485       C  0.72348954  0.77523085  0.68776367    -0.10200
C2486       C  0.71963778  0.77341849  0.66922466    -0.01100
C2487       C  0.73116838  0.75501993  0.65947776    -0.11300
C2488       C  0.74666398  0.73940071  0.66796703    -0.09700
H2489       H  0.74217378  0.76179786  0.71055308     0.08200
H2490       H  0.71479569  0.78901719  0.69566787     0.11900
H2491       H  0.72853478  0.75290274  0.64517356     0.11700
H2492       H  0.75581656  0.72605074  0.66002152     0.08200
C2493       C  0.56848140  0.68357509  0.57845383    -0.10900
C2494       C  0.58930468  0.68046380  0.56590879     0.06300
C2495       C  0.62380559  0.70284497  0.56627456    -0.09600
C2496       C  0.63730868  0.72814869  0.57895772    -0.11300
C2497       C  0.61642221  0.73171653  0.59127887    -0.01100
C2498       C  0.58191635  0.70922207  0.59096869    -0.10200
C2499       C  0.57508626  0.65368909  0.55255698     0.06300
H2500       H  0.64029909  0.70059515  0.55682317     0.08200
H2501       H  0.66399323  0.74538576  0.57886986     0.11700
H2502       H  0.56537430  0.71150353  0.60037181     0.11900
H2503       H  0.54175494  0.66653851  0.57834474     0.08200
C2504       C  0.55258836  0.62093618  0.55779321    -0.10900
C2505       C  0.53955511  0.59535310  0.54530832    -0.10200
C2506       C  0.54863515  0.60208324  0.52731953    -0.01100
C2507       C  0.57082882  0.63498725  0.52202749    -0.11300
C2508       C  0.58410316  0.66061316  0.53459950    -0.09700
H2509       H  0.54557208  0.61504950  0.57160481     0.08200
H2510       H  0.52248638  0.57021699  0.54980708     0.11900
H2511       H  0.57827593  0.64082304  0.50826941     0.11700
H2512       H  0.60127713  0.68586720  0.53030985     0.08200
C2513       C  0.80161768  0.92530789  0.56763267    -0.10900
C2514       C  0.81835673  0.90774873  0.56360148     0.06300
C2515       C  0.81040570  0.87850073  0.57296689    -0.09600
C2516       C  0.78582855  0.86672552  0.58607373    -0.11300
C2517       C  0.76901095  0.88422998  0.59020542    -0.01100
C2518       C  0.77726701  0.91376030  0.58093002    -0.10200
C2519       C  0.84515081  0.92052401  0.55020137     0.06300
H2520       H  0.82305889  0.86459777  0.57000586     0.08200
H2521       H  0.77992062  0.84383511  0.59292130     0.11700
H2522       H  0.76455380  0.92764963  0.58374646     0.11900
H2523       H  0.80772737  0.94814877  0.56066610     0.08200
C2524       C  0.83994865  0.92889351  0.53303137    -0.10900
C2525       C  0.86581782  0.94113755  0.52051513    -0.10200
C2526       C  0.89730815  0.94570211  0.52518499    -0.01100
C2527       C  0.90221325  0.93707718  0.54236497    -0.11300
C2528       C  0.87635929  0.92445640  0.55470110    -0.09700
H2529       H  0.81588034  0.92581860  0.52932369     0.08200
H2530       H  0.86148251  0.94778658  0.50740087     0.11900
H2531       H  0.92621278  0.94029776  0.54635186     0.11700
H2532       H  0.88091108  0.91834432  0.56790790     0.08200
C2533       C  0.57621549  0.91344265  0.53269471    -0.10900
C2534       C  0.58368568  0.92635390  0.55005425     0.06300
C2535       C  0.57794143  0.95240610  0.55482025    -0.09600
C2536       C  0.56427460  0.96488646  0.54261201    -0.11300
C2537       C  0.55644431  0.95191097  0.52526427    -0.01100
C2538       C  0.56298242  0.92636890  0.52030814    -0.10200
C2539       C  0.59651904  0.91225668  0.56347119     0.06300
H2540       H  0.58327164  0.96255736  0.56815713     0.08200
H2541       H  0.55968239  0.98469913  0.54682364     0.11700
H2542       H  0.55715113  0.91590978  0.50705047     0.11900
H2543       H  0.58064142  0.89339500  0.52875045     0.08200
C2544       C  0.57984966  0.87777451  0.56664378    -0.10900
C2545       C  0.59095851  0.86461370  0.57997200    -0.10200
C2546       C  0.61923667  0.88567126  0.59020960    -0.01100
C2547       C  0.63600984  0.92020284  0.58691680    -0.11300
C2548       C  0.62459098  0.93338097  0.57375911    -0.09700
H2549       H  0.55790588  0.86110155  0.55899880     0.08200
H2550       H  0.57765258  0.83787671  0.58208759     0.11900
H2551       H  0.65797754  0.93704719  0.59449210     0.11700
H2552       H  0.63783486  0.96008593  0.57149997     0.08200
loop_ 
_geom_bond_atom_site_label_1 
_geom_bond_atom_site_label_2 
_geom_bond_distance 
_geom_bond_site_symmetry_2 
_ccdc_geom_bond_type 
Zn1           O5   1.946       .  S
Zn1           O6   1.995       .  S
Zn1          O10   1.987       .  S
Zn1          O17   1.986       .  S
Zn2           O5   1.950       .  S
Zn2           O7   2.008       .  S
Zn2           O9   2.006       .  S
Zn2          O13   1.983       .  S
Zn3           O5   1.948       .  S
Zn3           O8   1.997       .  S
Zn3          O11   2.010       .  S
Zn3          O14   1.987       .  S
Zn4           O5   1.983       .  S
Zn4          O12   2.073       .  S
Zn4          O15   2.068       .  S
Zn4          O16   2.076       .  S
O6           C18   1.270       .  A
O7           C19   1.272       .  A
O8           C20   1.270       .  A
O9           C18   1.271       .  A
O10          C20   1.269       .  A
O11          C19   1.272       .  A
O12          C21   1.281       .  A
O13          C22   1.272       .  A
O14          C21   1.272       .  A
O15          C22   1.281       .  A
O16          C23   1.281       .  A
O17          C23   1.271       .  A
C18         C603   1.475       .  S
C19         C632   1.479       .  S
C20         C583   1.467       .  S
C21         C523   1.489       .  S
C22         C552   1.484       .  S
C23         C572   1.489       .  S
C24          H25   1.111       .  S
C24          C30   1.539       .  S
C24          C29   1.540       .  S
C24          C28   1.538       .  S
C26          H27   1.111       .  S
C26          C32   1.540       .  S
C26          C31   1.536       .  S
C26          C33   1.539       .  S
C28          C31   1.374       .  D
C28         C543   1.482       .  S
C29          C32   1.377       .  D
C29         C532   1.489       .  S
C30          C33   1.377       .  D
C30         C563   1.488       .  S
C31         C492   1.487       .  S
C32         C463   1.487       .  S
C33         C512   1.487       .  S
Zn34         O38   1.948       .  S
Zn34         O39   1.980       .  S
Zn34         O43   2.011       .  S
Zn34         O50   1.997       .  S
Zn35         O38   1.986       .  S
Zn35         O40   2.071       .  S
Zn35         O42   2.073       .  S
Zn35         O46   2.071       .  S
Zn36         O38   1.948       .  S
Zn36         O41   2.002       .  S
Zn36         O44   1.986       .  S
Zn36         O47   2.008       .  S
Zn37         O38   1.947       .  S
Zn37         O45   1.997       .  S
Zn37         O48   1.983       .  S
Zn37         O49   2.008       .  S
O39          C51   1.272       .  A
O40          C52   1.281       .  A
O41          C53   1.271       .  A
O42          C51   1.281       .  A
O43          C53   1.271       .  A
O44          C52   1.272       .  A
O45          C54   1.271       .  A
O46          C55   1.281       .  A
O47          C54   1.271       .  A
O48          C55   1.271       .  A
O49          C56   1.272       .  A
O50          C56   1.270       .  A
C51         C503   1.487       .  S
C52         C472   1.488       .  S
C53         C403   1.474       .  S
C54         C443   1.474       .  S
C55         C483   1.487       .  S
C56         C423   1.474       .  S
Zn57         O61   1.950       .  S
Zn57         O62   1.983       .  S
Zn57         O66   2.009       .  S
Zn57         O73   2.008       .  S
Zn58         O61   1.984       .  S
Zn58         O63   2.070       .  S
Zn58         O65   2.066       .  S
Zn58         O69   2.070       .  S
Zn59         O61   1.949       .  S
Zn59         O64   2.012       .  S
Zn59         O67   1.998       .  S
Zn59         O70   2.000       .  S
Zn60         O61   1.950       .  S
Zn60         O68   2.005       .  S
Zn60         O71   1.984       .  S
Zn60         O72   2.001       .  S
O62          C74   1.272       .  A
O63          C75   1.281       .  A
O64          C76   1.272       .  A
O65          C74   1.280       .  A
O66          C76   1.272       .  A
O67          C75   1.273       .  A
O68          C77   1.271       .  A
O69          C78   1.280       .  A
O70          C77   1.271       .  A
O71          C78   1.272       .  A
O72          C79   1.271       .  A
O73          C79   1.271       .  A
C74         C303   1.484       .  S
C75         C292   1.489       .  S
C76         C383   1.480       .  S
C77         C352   1.474       .  S
C78         C323   1.487       .  S
C79         C363   1.476       .  S
C80          H81   1.111       .  S
C80          C86   1.536       .  S
C80          C85   1.534       .  S
C80          C84   1.534       .  S
C82          H83   1.111       .  S
C82          C88   1.540       .  S
C82          C87   1.539       .  S
C82          C89   1.539       .  S
C84          C87   1.375       .  D
C84         C223   1.484       .  S
C85          C88   1.376       .  D
C85         C272   1.483       .  S
C86          C89   1.377       .  D
C86         C243   1.482       .  S
C87         C312   1.481       .  S
C88         C332   1.485       .  S
C89         C283   1.488       .  S
Zn90         O94   1.960       .  S
Zn90         O95   2.035       .  S
Zn90         O99   2.024       .  S
Zn90        O106   2.013       .  S
Zn91         O94   1.919       .  S
Zn91         O96   1.955       .  S
Zn91         O98   1.952       .  S
Zn91        O102   1.956       .  S
Zn92         O94   1.957       .  S
Zn92         O97   2.025       .  S
Zn92        O100   2.034       .  S
Zn92        O103   2.025       .  S
Zn93         O94   1.961       .  S
Zn93        O101   2.025       .  S
Zn93        O104   2.041       .  S
Zn93        O105   2.024       .  S
O95         C107   1.273       .  A
O96         C108   1.266       .  A
O97         C109   1.276       .  A
O98         C107   1.265       .  A
O99         C109   1.276       .  A
O100        C108   1.274       .  A
O101        C110   1.276       .  A
O102        C111   1.265       .  A
O103        C110   1.277       .  A
O104        C111   1.275       .  A
O105        C112   1.276       .  A
O106        C112   1.275       .  A
C107        C163   1.471       .  S
C108        C183   1.473       .  S
C109        C263   1.485       .  S
C110        C232   1.485       .  S
C111        C212   1.476       .  S
C112        C252   1.482       .  S
Zn113       O117   1.959   1_545  S
Zn113       O118   2.013       .  S
Zn113       O129   2.028       .  S
Zn113       O760   2.010   1_545  S
Zn114      O1393   1.955   1_545  S
Zn114       O125   2.037       .  S
Zn114       O757   2.008   1_545  S
Zn114      O1397   2.010       .  S
Zn115      O2031   1.956       .  S
Zn115       O123   2.002       .  S
Zn115       O126   2.026       .  S
Zn115      O1396   2.002       .  S
Zn116       O117   1.916   1_654  S
Zn116       O128   1.958   1_665  S
Zn116      O2038   1.965       .  S
Zn116      O1403   1.962   1_565  S
O117      Zn1390   1.955   1_465  S
O117      Zn2029   1.956   1_455  S
O118        C130   1.274       .  A
O119       Zn752   2.008       .  S
O119        C131   1.274       .  A
O120      Zn1391   2.002   1_455  S
O120        C132   1.272       .  A
O121      Zn1390   2.010   1_455  S
O121        C130   1.274       .  A
O122       Zn751   2.010       .  S
O122        C132   1.274       .  A
O123        C131   1.273       .  A
O124      Zn2030   1.965       .  S
O124        C133   1.267       .  A
O125        C134   1.274   1_556  A
O126        C133   1.273   1_556  A
O127      Zn1392   1.962   1_545  S
O127        C134   1.267       .  A
O128        C135   1.267       .  A
O129        C135   1.274   1_556  A
C130        C412   1.479       .  S
C131        C432   1.476       .  S
C132        C452   1.476       .  S
C133        C192   1.470       .  S
C134        C203   1.472       .  S
C135        C172   1.470       .  S
Zn136       O140   1.921       .  S
Zn136       O141   1.973       .  S
Zn136      O1421   1.969   1_455  S
Zn136       O790   1.963       .  S
Zn137       O140   1.961       .  S
Zn137       O144   2.044       .  S
Zn137      O1418   2.010   1_455  S
Zn137       O786   2.014       .  S
Zn138      O1416   1.960       .  S
Zn138       O143   2.034       .  S
Zn138       O146   2.009       .  S
Zn138       O787   2.013       .  S
Zn139       O778   1.959       .  S
Zn139       O150   2.004       .  S
Zn139       O151   2.020       .  S
Zn139      O1423   2.014   1_455  S
O140      Zn1414   1.960   1_455  S
O140       Zn777   1.959       .  S
O141        C153   1.268       .  A
O142      Zn1413   2.010       .  S
O142        C154   1.275       .  A
O143        C155   1.274       .  A
O144        C153   1.275       .  A
O145      Zn1412   1.969       .  S
O145        C155   1.268       .  A
O146        C154   1.274       .  A
O147      Zn1415   2.014       .  S
O147        C156   1.274       .  A
O148       Zn775   2.013   1_545  S
O148        C157   1.274       .  A
O149       Zn776   2.013   1_545  S
O149        C156   1.273       .  A
O150        C157   1.273       .  A
O151        C158   1.273       .  A
O152       Zn774   1.963       .  S
O152        C158   1.267       .  A
C153        C623   1.478       .  S
C154        C372   1.476       .  S
C155        C612   1.474       .  S
C156        C392   1.478       .  S
C157        C343   1.478       .  S
C158        C592   1.471       .  S
C159        C160   1.401       .  A
C159        C164   1.390       .  A
C159        H169   1.083       .  S
C160        C165   1.477       .  S
C160        C161   1.408       .  A
C161        C162   1.397       .  A
C161        H166   1.082       .  S
C162        C163   1.401       .  A
C162        H167   1.083       .  S
C163        C164   1.406       .  A
C164        H168   1.083       .  S
C165        C170   1.408       .  A
C165        C174   1.401       .  A
C170        C171   1.396       .  A
C170        H175   1.082       .  S
C171        C172   1.401       .  A
C171        H176   1.083       .  S
C172        C173   1.406       .  A
C173        C174   1.390       .  A
C173        H177   1.083       .  S
C174        H178   1.083       .  S
C179        C180   1.401       .  A
C179        C184   1.390       .  A
C179        H189   1.083       .  S
C180        C185   1.477       .  S
C180        C181   1.407       .  A
C181        C182   1.397       .  A
C181        H186   1.083       .  S
C182        C183   1.402       .  A
C182        H187   1.083       .  S
C183        C184   1.407       .  A
C184        H188   1.083       .  S
C185        C190   1.407       .  A
C185        C194   1.401       .  A
C190        C191   1.396       .  A
C190        H195   1.083       .  S
C191        C192   1.402       .  A
C191        H196   1.083       .  S
C192        C193   1.406       .  A
C193        C194   1.391       .  A
C193        H197   1.083       .  S
C194        H198   1.083       .  S
C199        C200   1.409       .  A
C199        C204   1.399       .  A
C199        H209   1.083       .  S
C200        C205   1.481       .  S
C200        C201   1.402       .  A
C201        C202   1.391       .  A
C201        H206   1.083       .  S
C202        C203   1.405       .  A
C202        H207   1.083       .  S
C203        C204   1.402       .  A
C204        H208   1.083       .  S
C205        C210   1.401       .  A
C205        C214   1.409       .  A
C210        C211   1.391       .  A
C210        H215   1.083       .  S
C211        C212   1.408       .  A
C211        H216   1.083       .  S
C212        C213   1.402       .  A
C213        C214   1.398       .  A
C213        H217   1.083       .  S
C214        H218   1.083       .  S
C219        C220   1.406       .  A
C219        C224   1.397       .  A
C219        H229   1.083       .  S
C220        C225   1.491       .  S
C220        C221   1.409       .  A
C221        C222   1.400       .  A
C221        H226   1.082       .  S
C222        C223   1.401       .  A
C222        H227   1.084       .  S
C223        C224   1.404       .  A
C224        H228   1.083       .  S
C225        C230   1.407   1_455  A
C225       C1510   1.406   1_455  A
C230       C1507   1.399       .  A
C230        H235   1.083   1_655  S
C231        C232   1.407       .  A
C231       C1506   1.399       .  A
C231        H236   1.083       .  S
C232        C233   1.406       .  A
C233        C234   1.399       .  A
C233        H237   1.083       .  S
C234       C1501   1.406       .  A
C234        H238   1.083       .  S
C239        C240   1.408       .  A
C239        C244   1.399       .  A
C239        H249   1.082       .  S
C240        C245   1.487       .  S
C240        C241   1.406       .  A
C241        C242   1.395       .  A
C241        H246   1.083       .  S
C242        C243   1.404       .  A
C242        H247   1.083       .  S
C243        C244   1.401       .  A
C244        H248   1.083       .  S
C245        C888   1.406       .  A
C245        C892   1.406       .  A
C250        C251   1.398       .  A
C250        C883   1.406   1_545  A
C250        H255   1.083   1_545  S
C251        C252   1.406       .  A
C251        H256   1.083       .  S
C252        C253   1.406       .  A
C253        C254   1.397       .  A
C253        H257   1.083       .  S
C254        C883   1.406   1_545  A
C254        H896   1.083       .  S
H258        C892   1.083       .  S
C259        C260   1.406       .  A
C259        C264   1.399       .  A
C259        H269   1.082       .  S
C260        C265   1.489       .  S
C260        C261   1.406       .  A
C261        C262   1.399       .  A
C261        H266   1.083       .  S
C262        C263   1.406       .  A
C262        H267   1.083       .  S
C263        C264   1.406       .  A
C264        H268   1.083       .  S
C265        C270   1.406       .  A
C265        C274   1.409       .  A
C270        C271   1.396       .  A
C270        H275   1.083       .  S
C271        C272   1.403       .  A
C271        H276   1.083       .  S
C272        C273   1.401       .  A
C273        C274   1.400       .  A
C273        H277   1.083       .  S
C274        H278   1.082       .  S
C279        C280   1.405       .  A
C279        C284   1.398       .  A
C279        H289   1.083       .  S
C280        C285   1.492       .  S
C280        C281   1.410       .  A
C281        C282   1.403       .  A
C281        H286   1.083       .  S
C282        C283   1.402       .  A
C282        H287   1.083       .  S
C283        C284   1.405       .  A
C284        H288   1.083       .  S
C285        C928   1.403       .  A
C285        C932   1.410       .  A
C290        C291   1.398   1_565  A
C290        C923   1.403       .  A
C290        H933   1.083       .  S
C291        C292   1.409       .  A
C291        H296   1.083       .  S
C292        C293   1.405       .  A
C293        C294   1.404       .  A
C293        H297   1.083       .  S
C294        C923   1.410   1_545  A
C294        H298   1.083       .  S
H295        C928   1.083       .  S
C299        C304   1.395       .  A
C299       C1576   1.402       .  A
C299        H309   1.083       .  S
C300        C305   1.486       .  S
C300       C1575   1.402       .  A
C300       C1577   1.409   1_455  A
C301        C302   1.403       .  A
C301       C1576   1.409       .  A
C301       H1582   1.083       .  S
C302        C303   1.405       .  A
C302        H307   1.083       .  S
C303        C304   1.408       .  A
C304        H308   1.083       .  S
C305        C310   1.405       .  A
C305        C314   1.409       .  A
H306       C1577   1.083       .  S
C310        C311   1.397       .  A
C310        H315   1.083       .  S
C311        C312   1.404       .  A
C311        H316   1.083       .  S
C312        C313   1.400       .  A
C313        C314   1.400       .  A
C313        H317   1.083       .  S
C314        H318   1.083       .  S
C319        C320   1.410       .  A
C319        C324   1.405       .  A
C319        H329   1.083       .  S
C320        C325   1.489       .  S
C320        C321   1.402       .  A
C321        C322   1.395       .  A
C321        H326   1.083       .  S
C322        C323   1.409       .  A
C322        H327   1.083       .  S
C323        C324   1.405       .  A
C324        H328   1.083       .  S
C325        C330   1.410       .  A
C325        C334   1.405       .  A
C330        C331   1.401       .  A
C330        H335   1.083       .  S
C331        C332   1.400       .  A
C331        H336   1.083       .  S
C332        C333   1.405       .  A
C333        C334   1.398       .  A
C333        H337   1.083       .  S
C334        H338   1.083       .  S
C339        C340   1.406       .  A
C339        C344   1.397       .  A
C339        H349   1.083       .  S
C340        C345   1.485       .  S
C340        C341   1.406       .  A
C341        C342   1.394       .  A
C341        H346   1.082       .  S
C342        C343   1.404       .  A
C342        H347   1.083       .  S
C343        C344   1.406       .  A
C344        H348   1.083       .  S
C345        C350   1.407       .  A
C345        C354   1.406       .  A
C350        C351   1.397       .  A
C350        H355   1.083       .  S
C351        C352   1.404       .  A
C351        H356   1.083       .  S
C352        C353   1.404       .  A
C353        C354   1.394       .  A
C353        H357   1.083       .  S
C354        H358   1.082       .  S
C359        C360   1.407       .  A
C359        C364   1.397       .  A
C359        H369   1.082       .  S
C360        C365   1.485       .  S
C360        C361   1.406       .  A
C361        C362   1.395       .  A
C361        H366   1.082       .  S
C362        C363   1.404       .  A
C362        H367   1.083       .  S
C363        C364   1.404       .  A
C364        H368   1.083       .  S
C365        C370   1.407       .  A
C365        C374   1.406       .  A
C370        C371   1.396       .  A
C370        H375   1.082       .  S
C371        C372   1.404       .  A
C371        H376   1.083       .  S
C372        C373   1.404       .  A
C373        C374   1.395       .  A
C373        H377   1.083       .  S
C374        H378   1.082       .  S
C379        C380   1.407       .  A
C379        C384   1.397       .  A
C379        H389   1.083       .  S
C380        C385   1.489       .  S
C380        C381   1.407       .  A
C381        C382   1.397       .  A
C381        H386   1.082       .  S
C382        C383   1.405       .  A
C382        H387   1.083       .  S
C383        C384   1.405       .  A
C384        H388   1.083       .  S
C385        C390   1.407       .  A
C385        C394   1.407       .  A
C390        C391   1.398       .  A
C390        H395   1.082       .  S
C391        C392   1.404       .  A
C391        H396   1.083       .  S
C392        C393   1.404       .  A
C393        C394   1.397       .  A
C393        H397   1.083       .  S
C394        H398   1.082       .  S
C399        C400   1.406       .  A
C399        C404   1.394       .  A
C399        H409   1.083       .  S
C400        C405   1.485       .  S
C400        C401   1.407       .  A
C401        C402   1.398       .  A
C401        H406   1.082       .  S
C402        C403   1.405       .  A
C402        H407   1.083       .  S
C403        C404   1.402       .  A
C404        H408   1.083       .  S
C405        C410   1.406       .  A
C405        C414   1.406       .  A
C410        C411   1.395       .  A
C410        H415   1.083       .  S
C411        C412   1.405       .  A
C411        H416   1.083       .  S
C412        C413   1.406       .  A
C413        C414   1.398       .  A
C413        H417   1.083       .  S
C414        H418   1.082       .  S
C419        C420   1.406       .  A
C419        C424   1.396       .  A
C419        H429   1.083       .  S
C420        C425   1.481       .  S
C420        C421   1.405       .  A
C421        C422   1.394       .  A
C421        H426   1.082       .  S
C422        C423   1.403       .  A
C422        H427   1.083       .  S
C423        C424   1.405       .  A
C424        H428   1.083       .  S
C425        C430   1.405       .  A
C425        C434   1.405       .  A
C430        C431   1.395       .  A
C430        H435   1.083       .  S
C431        C432   1.405       .  A
C431        H436   1.083       .  S
C432        C433   1.404       .  A
C433        C434   1.395       .  A
C433        H437   1.083       .  S
C434        H438   1.083       .  S
C439        C440   1.406       .  A
C439        C444   1.394       .  A
C439        H449   1.083       .  S
C440        C445   1.483       .  S
C440        C441   1.406       .  A
C441        C442   1.396       .  A
C441        H446   1.082       .  S
C442        C443   1.404       .  A
C442        H447   1.083       .  S
C443        C444   1.403       .  A
C444        H448   1.083       .  S
C445        C450   1.406       .  A
C445        C454   1.405       .  A
C450        C451   1.394       .  A
C450        H455   1.083       .  S
C451        C452   1.403       .  A
C451        H456   1.083       .  S
C452        C453   1.406       .  A
C453        C454   1.396       .  A
C453        H457   1.083   1_455  S
C454        H458   1.083       .  S
C459        C460   1.405       .  A
C459        C464   1.398       .  A
C459        H469   1.083       .  S
C460        C465   1.489       .  S
C460        C461   1.409       .  A
C461        C462   1.401       .  A
C461        H466   1.083       .  S
C462        C463   1.401       .  A
C462        H467   1.083       .  S
C463        C464   1.406       .  A
C464        H468   1.083       .  S
C465       C1746   1.409       .  A
C465       C1750   1.402       .  A
C470        C471   1.404       .  A
C470       C1741   1.409   1_455  A
C470        H475   1.083       .  S
C471        C472   1.406       .  A
C471        H476   1.083       .  S
C472        C473   1.409       .  A
C473        C474   1.396   1_455  A
C473        H477   1.083       .  S
C474       C1741   1.402       .  A
C474        H478   1.083       .  S
C479        C484   1.403       .  A
C479       C1118   1.409       .  A
C479        H489   1.083       .  S
C480        C485   1.488       .  S
C480       C1117   1.409   1_545  A
C480       C1119   1.402       .  A
C481        C482   1.396       .  A
C481       C1118   1.402       .  A
C481       H1124   1.083       .  S
C482        C483   1.410       .  A
C482        H487   1.083       .  S
C483        C484   1.405       .  A
C484        H488   1.083       .  S
C485        C490   1.404       .  A
C485        C494   1.409       .  A
H486       C1119   1.083       .  S
C490        C491   1.397       .  A
C490        H495   1.083       .  S
C491        C492   1.405       .  A
C491        H496   1.083       .  S
C492        C493   1.402       .  A
C493        C494   1.402       .  A
C493        H497   1.083       .  S
C494        H498   1.083       .  S
C499        C500   1.410       .  A
C499        C504   1.405       .  A
C499        H509   1.083       .  S
C500        C505   1.487       .  S
C500        C501   1.401       .  A
C501        C502   1.393       .  A
C501        H506   1.083       .  S
C502        C503   1.409       .  A
C502        H507   1.083       .  S
C503        C504   1.406       .  A
C504        H508   1.083       .  S
C505        C510   1.405       .  A
C505        C514   1.409       .  A
C510        C511   1.399       .  A
C510        H515   1.083       .  S
C511        C512   1.406       .  A
C511        H516   1.083       .  S
C512        C513   1.401       .  A
C513        C514   1.399       .  A
C513        H517   1.083       .  S
C514        H518   1.083       .  S
C519        C524   1.405       .  A
C519       C1796   1.409   1_455  A
C519        H529   1.083       .  S
C520        C525   1.489       .  S
C520       C1795   1.409       .  A
C520       C1797   1.402       .  A
C521        C522   1.396   1_655  A
C521       C1796   1.402       .  A
C521       H1802   1.083       .  S
C522        C523   1.409       .  A
C522        H527   1.083       .  S
C523        C524   1.406       .  A
C524        H528   1.083       .  S
C525        C530   1.405       .  A
C525        C534   1.409       .  A
H526       C1797   1.083       .  S
C530        C531   1.398       .  A
C530        H535   1.083       .  S
C531        C532   1.406       .  A
C531        H536   1.083       .  S
C532        C533   1.402       .  A
C533        C534   1.401       .  A
C533        H537   1.083       .  S
C534        H538   1.083       .  S
C539        C540   1.409       .  A
C539        C544   1.400       .  A
C539        H549   1.083       .  S
C540        C545   1.488       .  S
C540        C541   1.405       .  A
C541        C542   1.398       .  A
C541        H546   1.083       .  S
C542        C543   1.404       .  A
C542        H547   1.083       .  S
C543        C544   1.400       .  A
C544        H548   1.083       .  S
C545       C1188   1.402   1_545  A
C545       C1192   1.410   1_545  A
C550        C551   1.394       .  A
C550       C1183   1.402       .  A
C550        H555   1.083       .  S
C551        C552   1.407       .  A
C551        H556   1.083       .  S
C552        C553   1.405       .  A
C553        C554   1.404       .  A
C553        H557   1.083       .  S
C554       C1183   1.410       .  A
C554       H1196   1.083       .  S
H558       C1192   1.083       .  S
C559        C560   1.404       .  A
C559        C564   1.397       .  A
C559        H569   1.083       .  S
C560        C565   1.489       .  S
C560        C561   1.409       .  A
C561        C562   1.404       .  A
C561        H566   1.083       .  S
C562        C563   1.403       .  A
C562        H567   1.083       .  S
C563        C564   1.405       .  A
C564        H568   1.083       .  S
C565        C570   1.409       .  A
C565        C574   1.402       .  A
C570        C571   1.403       .  A
C570        H575   1.083       .  S
C571        C572   1.405       .  A
C571        H576   1.083       .  S
C572        C573   1.411       .  A
C573        C574   1.398       .  A
C573        H577   1.083       .  S
C574        H578   1.083       .  S
C579        C580   1.404       .  A
C579        C584   1.394       .  A
C579        H589   1.083       .  S
C580        C585   1.470       .  S
C580        C581   1.402       .  A
C581        C582   1.392       .  A
C581        H586   1.083       .  S
C582        C583   1.404       .  A
C582        H587   1.083       .  S
C583        C584   1.403       .  A
C584        H588   1.083       .  S
C585        C590   1.400       .  A
C585        C594   1.404       .  A
C590        C591   1.390       .  A
C590        H595   1.083       .  S
C591        C592   1.406       .  A
C591        H596   1.083       .  S
C592        C593   1.403       .  A
C593        C594   1.396       .  A
C593        H597   1.083       .  S
C594        H598   1.083       .  S
C599        C600   1.402       .  A
C599        C604   1.397       .  A
C599        H609   1.083       .  S
C600        C605   1.472       .  S
C600        C601   1.402       .  A
C601        C602   1.393       .  A
C601        H606   1.084       .  S
C602        C603   1.405       .  A
C602        H607   1.083       .  S
C603        C604   1.407       .  A
C604        H608   1.083       .  S
C605        C610   1.405       .  A
C605        C614   1.400       .  A
C610        C611   1.400       .  A
C610        H615   1.083       .  S
C611        C612   1.405       .  A
C611        H616   1.083       .  S
C612        C613   1.406       .  A
C613        C614   1.390       .  A
C613        H617   1.083       .  S
C614        H618   1.083       .  S
C619        C620   1.406       .  A
C619        C624   1.401       .  A
C619        H629   1.083       .  S
C620        C625   1.477       .  S
C620        C621   1.400       .  A
C621        C622   1.392       .  A
C621        H626   1.083       .  S
C622        C623   1.407       .  A
C622        H627   1.083       .  S
C623        C624   1.405       .  A
C624        H628   1.083       .  S
C625        C630   1.402       .  A
C625        C634   1.404       .  A
C630        C631   1.397       .  A
C630        H635   1.083       .  S
C631        C632   1.407       .  A
C631        H636   1.083       .  S
C632        C633   1.406       .  A
C633        C634   1.397       .  A
C633        H637   1.083       .  S
C634        H638   1.083       .  S
Zn639       O643   1.946       .  S
Zn639       O644   1.995       .  S
Zn639       O648   1.987       .  S
Zn639       O655   1.986       .  S
Zn640       O643   1.950       .  S
Zn640       O645   2.008       .  S
Zn640       O647   2.006       .  S
Zn640       O651   1.983       .  S
Zn641       O643   1.948       .  S
Zn641       O646   1.997       .  S
Zn641       O649   2.010       .  S
Zn641       O652   1.988       .  S
Zn642       O643   1.983       .  S
Zn642       O650   2.073       .  S
Zn642       O653   2.068       .  S
Zn642       O654   2.076       .  S
O644        C656   1.270       .  A
O645        C657   1.272       .  A
O646        C658   1.270       .  A
O647        C656   1.271       .  A
O648        C658   1.269       .  A
O649        C657   1.272       .  A
O650        C659   1.281       .  A
O651        C660   1.272       .  A
O652        C659   1.272       .  A
O653        C660   1.281       .  A
O654        C661   1.281       .  A
O655        C661   1.271       .  A
C656       C1241   1.475       .  S
C657       C1270   1.479       .  S
C658       C1221   1.467       .  S
C659       C1161   1.489       .  S
C660       C1190   1.484       .  S
C661       C1210   1.489       .  S
C662        H663   1.111       .  S
C662        C668   1.539       .  S
C662        C667   1.540       .  S
C662        C666   1.538       .  S
C664        H665   1.111       .  S
C664        C670   1.540       .  S
C664        C669   1.536       .  S
C664        C671   1.539       .  S
C666        C669   1.374       .  D
C666       C1181   1.482       .  S
C667        C670   1.377       .  D
C667       C1170   1.489       .  S
C668        C671   1.377       .  D
C668       C1201   1.488       .  S
C669       C1130   1.487       .  S
C670       C1101   1.487       .  S
C671       C1150   1.487       .  S
Zn672       O676   1.947       .  S
Zn672       O677   1.980       .  S
Zn672       O681   2.011       .  S
Zn672       O688   1.996       .  S
Zn673       O676   1.986       .  S
Zn673       O678   2.071       .  S
Zn673       O680   2.073       .  S
Zn673       O684   2.072       .  S
Zn674       O676   1.948       .  S
Zn674       O679   2.003       .  S
Zn674       O682   1.986       .  S
Zn674       O685   2.008       .  S
Zn675       O676   1.947       .  S
Zn675       O683   1.997       .  S
Zn675       O686   1.983       .  S
Zn675       O687   2.008       .  S
O677        C689   1.272       .  A
O678        C690   1.281       .  A
O679        C691   1.271       .  A
O680        C689   1.281       .  A
O681        C691   1.271       .  A
O682        C690   1.272       .  A
O683        C692   1.271       .  A
O684        C693   1.281       .  A
O685        C692   1.271       .  A
O686        C693   1.271       .  A
O687        C694   1.272       .  A
O688        C694   1.270       .  A
C689       C1141   1.487       .  S
C690       C1110   1.488       .  S
C691       C1041   1.474       .  S
C692       C1081   1.474       .  S
C693       C1121   1.487       .  S
C694       C1061   1.474       .  S
Zn695       O699   1.950       .  S
Zn695       O700   1.983       .  S
Zn695       O704   2.008       .  S
Zn695       O711   2.008       .  S
Zn696       O699   1.984       .  S
Zn696       O701   2.069       .  S
Zn696       O703   2.066       .  S
Zn696       O707   2.071       .  S
Zn697       O699   1.949       .  S
Zn697       O702   2.012       .  S
Zn697       O705   1.998       .  S
Zn697       O708   2.000       .  S
Zn698       O699   1.950       .  S
Zn698       O706   2.006       .  S
Zn698       O709   1.985       .  S
Zn698       O710   2.001       .  S
O700        C712   1.272       .  A
O701        C713   1.281       .  A
O702        C714   1.272       .  A
O703        C712   1.280       .  A
O704        C714   1.272       .  A
O705        C713   1.273       .  A
O706        C715   1.271       .  A
O707        C716   1.280       .  A
O708        C715   1.271       .  A
O709        C716   1.272       .  A
O710        C717   1.271       .  A
O711        C717   1.271       .  A
C712        C941   1.484       .  S
C713        C930   1.489       .  S
C714       C1021   1.480       .  S
C715        C990   1.474       .  S
C716        C961   1.487       .  S
C717       C1001   1.476       .  S
C718        H719   1.111       .  S
C718        C724   1.536       .  S
C718        C723   1.534       .  S
C718        C722   1.534       .  S
C720        H721   1.111       .  S
C720        C726   1.540       .  S
C720        C725   1.539       .  S
C720        C727   1.539       .  S
C722        C725   1.375       .  D
C722        C861   1.484       .  S
C723        C726   1.376       .  D
C723        C910   1.483       .  S
C724        C727   1.377       .  D
C724        C881   1.482       .  S
C725        C950   1.481       .  S
C726        C970   1.485       .  S
C727        C921   1.488       .  S
Zn728       O732   1.960       .  S
Zn728       O733   2.035       .  S
Zn728       O737   2.024       .  S
Zn728       O744   2.013       .  S
Zn729       O732   1.919       .  S
Zn729       O734   1.955       .  S
Zn729       O736   1.952       .  S
Zn729       O740   1.955       .  S
Zn730       O732   1.957       .  S
Zn730       O735   2.025       .  S
Zn730       O738   2.035       .  S
Zn730       O741   2.025       .  S
Zn731       O732   1.961       .  S
Zn731       O739   2.025       .  S
Zn731       O742   2.042       .  S
Zn731       O743   2.024       .  S
O733        C745   1.273       .  A
O734        C746   1.266       .  A
O735        C747   1.276       .  A
O736        C745   1.265       .  A
O737        C747   1.276       .  A
O738        C746   1.274       .  A
O739        C748   1.276       .  A
O740        C749   1.265       .  A
O741        C748   1.277       .  A
O742        C749   1.275       .  A
O743        C750   1.276       .  A
O744        C750   1.275       .  A
C745        C801   1.471       .  S
C746        C821   1.473       .  S
C747        C901   1.485       .  S
C748        C870   1.485       .  S
C749        C850   1.476       .  S
C750        C890   1.482       .  S
Zn751       O755   1.959       .  S
Zn751       O756   2.013       .  S
Zn751       O767   2.027       .  S
Zn752      O2031   1.955       .  S
Zn752      O2035   2.010       .  S
Zn752       O763   2.037       .  S
Zn753      O1393   1.956       .  S
Zn753      O2034   2.002       .  S
Zn753       O761   2.002       .  S
Zn753       O764   2.026       .  S
Zn754       O755   1.916   1_654  S
Zn754      O1400   1.965       .  S
Zn754      O2041   1.962       .  S
Zn754       O766   1.958   1_655  S
O755      Zn2028   1.955   1_455  S
O755      Zn1391   1.956   1_455  S
O756        C768   1.274       .  A
O757        C769   1.274       .  A
O758      Zn2029   2.002   1_455  S
O758        C770   1.272       .  A
O759      Zn2028   2.010   1_455  S
O759        C768   1.274       .  A
O760        C770   1.274       .  A
O761        C769   1.273       .  A
O762      Zn1392   1.965       .  S
O762        C771   1.267       .  A
O763        C772   1.274   1_556  A
O764        C771   1.273   1_556  A
O765      Zn2030   1.962       .  S
O765        C772   1.267       .  A
O766        C773   1.267       .  A
O767        C773   1.274   1_556  A
C768       C1050   1.479       .  S
C769       C1070   1.475       .  S
C770       C1090   1.476       .  S
C771        C830   1.470       .  S
C772        C841   1.472       .  S
C773        C810   1.470       .  S
Zn774       O778   1.921       .  S
Zn774       O779   1.974   1_545  S
Zn774      O2059   1.970   1_445  S
Zn775       O778   1.961   1_565  S
Zn775      O2056   2.009   1_455  S
Zn775       O782   2.044       .  S
Zn776      O2054   1.960   1_565  S
Zn776       O781   2.034       .  S
Zn776       O784   2.009       .  S
Zn777      O2061   2.014   1_455  S
Zn777       O788   2.004       .  S
Zn777       O789   2.020       .  S
O778      Zn2052   1.960   1_445  S
O779        C791   1.268       .  A
O780      Zn2051   2.009       .  S
O780        C792   1.274       .  A
O781        C793   1.274       .  A
O782        C791   1.275       .  A
O783      Zn2050   1.969   1_565  S
O783        C793   1.268       .  A
O784        C792   1.275       .  A
O785      Zn2053   2.014       .  S
O785        C794   1.274       .  A
O786        C795   1.274       .  A
O787        C794   1.273       .  A
O788        C795   1.273       .  A
O789        C796   1.273       .  A
O790        C796   1.267       .  A
C791       C1261   1.478       .  S
C792       C1010   1.476       .  S
C793       C1250   1.474       .  S
C794       C1030   1.478       .  S
C795        C981   1.478       .  S
C796       C1230   1.471       .  S
C797        C798   1.401       .  A
C797        C802   1.390       .  A
C797        H807   1.083       .  S
C798        C803   1.477       .  S
C798        C799   1.408       .  A
C799        C800   1.397       .  A
C799        H804   1.082       .  S
C800        C801   1.401       .  A
C800        H805   1.083       .  S
C801        C802   1.406       .  A
C802        H806   1.083       .  S
C803        C808   1.408       .  A
C803        C812   1.401       .  A
C808        C809   1.396       .  A
C808        H813   1.082       .  S
C809        C810   1.401       .  A
C809        H814   1.083       .  S
C810        C811   1.406       .  A
C811        C812   1.390       .  A
C811        H815   1.083       .  S
C812        H816   1.083       .  S
C817        C818   1.401       .  A
C817        C822   1.390       .  A
C817        H827   1.083       .  S
C818        C823   1.477       .  S
C818        C819   1.407       .  A
C819        C820   1.397       .  A
C819        H824   1.083       .  S
C820        C821   1.402       .  A
C820        H825   1.083       .  S
C821        C822   1.407       .  A
C822        H826   1.083       .  S
C823        C828   1.407       .  A
C823        C832   1.401       .  A
C828        C829   1.396       .  A
C828        H833   1.083       .  S
C829        C830   1.402       .  A
C829        H834   1.083       .  S
C830        C831   1.406       .  A
C831        C832   1.391       .  A
C831        H835   1.083       .  S
C832        H836   1.083       .  S
C837        C838   1.409       .  A
C837        C842   1.399       .  A
C837        H847   1.083       .  S
C838        C843   1.481       .  S
C838        C839   1.402       .  A
C839        C840   1.391       .  A
C839        H844   1.083       .  S
C840        C841   1.405       .  A
C840        H845   1.083       .  S
C841        C842   1.402       .  A
C842        H846   1.083       .  S
C843        C848   1.401       .  A
C843        C852   1.409       .  A
C848        C849   1.391       .  A
C848        H853   1.083       .  S
C849        C850   1.408       .  A
C849        H854   1.083       .  S
C850        C851   1.402       .  A
C851        C852   1.398       .  A
C851        H855   1.083       .  S
C852        H856   1.083       .  S
C857        C858   1.406       .  A
C857        C862   1.397       .  A
C857        H867   1.083       .  S
C858        C863   1.491       .  S
C858        C859   1.409       .  A
C859        C860   1.400       .  A
C859        H864   1.082       .  S
C860        C861   1.401       .  A
C860        H865   1.083       .  S
C861        C862   1.404       .  A
C862        H866   1.083       .  S
C863        C868   1.407   1_455  A
C863       C2148   1.406   1_455  A
C868       C2145   1.399       .  A
C868        H873   1.083   1_655  S
C869       C2144   1.399       .  A
C869        C870   1.407       .  A
C869        H874   1.083       .  S
C870        C871   1.406       .  A
C871        C872   1.399       .  A
C871        H875   1.083       .  S
C872       C2139   1.406       .  A
C872        H876   1.083       .  S
C877        C878   1.408       .  A
C877        C882   1.399       .  A
C877        H887   1.082       .  S
C878        C883   1.487       .  S
C878        C879   1.406       .  A
C879        C880   1.395       .  A
C879        H884   1.083       .  S
C880        C881   1.404       .  A
C880        H885   1.083       .  S
C881        C882   1.401       .  A
C882        H886   1.083       .  S
C888        C889   1.398       .  A
C888        H893   1.083       .  S
C889        C890   1.406       .  A
C889        H894   1.083       .  S
C890        C891   1.406       .  A
C891        C892   1.397       .  A
C891        H895   1.083       .  S
C897        C898   1.406       .  A
C897        C902   1.399       .  A
C897        H907   1.082       .  S
C898        C903   1.490       .  S
C898        C899   1.406       .  A
C899        C900   1.399       .  A
C899        H904   1.083       .  S
C900        C901   1.406       .  A
C900        H905   1.083       .  S
C901        C902   1.406       .  A
C902        H906   1.083       .  S
C903        C908   1.406       .  A
C903        C912   1.409       .  A
C908        C909   1.396       .  A
C908        H913   1.083       .  S
C909        C910   1.403       .  A
C909        H914   1.083       .  S
C910        C911   1.401       .  A
C911        C912   1.400       .  A
C911        H915   1.083       .  S
C912        H916   1.082       .  S
C917        C918   1.405       .  A
C917        C922   1.398       .  A
C917        H927   1.083       .  S
C918        C923   1.492       .  S
C918        C919   1.410       .  A
C919        C920   1.403       .  A
C919        H924   1.083       .  S
C920        C921   1.402       .  A
C920        H925   1.083       .  S
C921        C922   1.405       .  A
C922        H926   1.083       .  S
C928        C929   1.398       .  A
C929        C930   1.409       .  A
C929        H934   1.083       .  S
C930        C931   1.405       .  A
C931        C932   1.404       .  A
C931        H935   1.083       .  S
C932        H936   1.083       .  S
C937       C2214   1.402       .  A
C937        C942   1.395       .  A
C937        H947   1.083       .  S
C938        C943   1.486       .  S
C938       C2213   1.402       .  A
C938       C2215   1.409   1_455  A
C939       C2214   1.409       .  A
C939        C940   1.403       .  A
C939       H2220   1.083       .  S
C940        C941   1.405       .  A
C940        H945   1.083       .  S
C941        C942   1.408       .  A
C942        H946   1.083       .  S
C943        C948   1.405       .  A
C943        C952   1.409       .  A
H944       C2215   1.083       .  S
C948        C949   1.397       .  A
C948        H953   1.083       .  S
C949        C950   1.404       .  A
C949        H954   1.083       .  S
C950        C951   1.400       .  A
C951        C952   1.400       .  A
C951        H955   1.083       .  S
C952        H956   1.083       .  S
C957        C958   1.410       .  A
C957        C962   1.405       .  A
C957        H967   1.083       .  S
C958        C963   1.489       .  S
C958        C959   1.402       .  A
C959        C960   1.395       .  A
C959        H964   1.083       .  S
C960        C961   1.409       .  A
C960        H965   1.083       .  S
C961        C962   1.405       .  A
C962        H966   1.083       .  S
C963        C968   1.410       .  A
C963        C972   1.405       .  A
C968        C969   1.401       .  A
C968        H973   1.083       .  S
C969        C970   1.400       .  A
C969        H974   1.083       .  S
C970        C971   1.405       .  A
C971        C972   1.398       .  A
C971        H975   1.083       .  S
C972        H976   1.083       .  S
C977        C978   1.406       .  A
C977        C982   1.397       .  A
C977        H987   1.083       .  S
C978        C983   1.485       .  S
C978        C979   1.406       .  A
C979        C980   1.395       .  A
C979        H984   1.082       .  S
C980        C981   1.404       .  A
C980        H985   1.083       .  S
C981        C982   1.406       .  A
C982        H986   1.083       .  S
C983        C988   1.407       .  A
C983        C992   1.406       .  A
C988        C989   1.397       .  A
C988        H993   1.083       .  S
C989        C990   1.403       .  A
C989        H994   1.083       .  S
C990        C991   1.404       .  A
C991        C992   1.394       .  A
C991        H995   1.083       .  S
C992        H996   1.082       .  S
C997        C998   1.407       .  A
C997       C1002   1.397       .  A
C997       H1007   1.082       .  S
C998       C1003   1.485       .  S
C998        C999   1.406       .  A
C999       C1000   1.395       .  A
C999       H1004   1.082       .  S
C1000      C1001   1.404       .  A
C1000      H1005   1.083       .  S
C1001      C1002   1.404       .  A
C1002      H1006   1.083       .  S
C1003      C1008   1.407       .  A
C1003      C1012   1.406       .  A
C1008      C1009   1.396       .  A
C1008      H1013   1.082       .  S
C1009      C1010   1.404       .  A
C1009      H1014   1.083       .  S
C1010      C1011   1.404       .  A
C1011      C1012   1.395       .  A
C1011      H1015   1.083       .  S
C1012      H1016   1.082       .  S
C1017      C1018   1.407       .  A
C1017      C1022   1.397       .  A
C1017      H1027   1.082       .  S
C1018      C1023   1.489       .  S
C1018      C1019   1.407       .  A
C1019      C1020   1.397       .  A
C1019      H1024   1.082       .  S
C1020      C1021   1.405       .  A
C1020      H1025   1.083       .  S
C1021      C1022   1.405       .  A
C1022      H1026   1.083       .  S
C1023      C1028   1.407       .  A
C1023      C1032   1.407       .  A
C1028      C1029   1.398       .  A
C1028      H1033   1.082       .  S
C1029      C1030   1.404       .  A
C1029      H1034   1.083       .  S
C1030      C1031   1.404       .  A
C1031      C1032   1.397       .  A
C1031      H1035   1.083       .  S
C1032      H1036   1.082       .  S
C1037      C1038   1.406       .  A
C1037      C1042   1.394       .  A
C1037      H1047   1.083       .  S
C1038      C1043   1.485       .  S
C1038      C1039   1.407       .  A
C1039      C1040   1.398       .  A
C1039      H1044   1.083       .  S
C1040      C1041   1.405       .  A
C1040      H1045   1.083       .  S
C1041      C1042   1.402       .  A
C1042      H1046   1.083       .  S
C1043      C1048   1.406       .  A
C1043      C1052   1.406       .  A
C1048      C1049   1.395       .  A
C1048      H1053   1.083       .  S
C1049      C1050   1.404       .  A
C1049      H1054   1.083       .  S
C1050      C1051   1.406       .  A
C1051      C1052   1.398       .  A
C1051      H1055   1.083       .  S
C1052      H1056   1.082       .  S
C1057      C1058   1.406       .  A
C1057      C1062   1.396       .  A
C1057      H1067   1.083       .  S
C1058      C1063   1.481       .  S
C1058      C1059   1.405       .  A
C1059      C1060   1.394       .  A
C1059      H1064   1.082       .  S
C1060      C1061   1.403       .  A
C1060      H1065   1.083       .  S
C1061      C1062   1.405       .  A
C1062      H1066   1.083       .  S
C1063      C1068   1.405       .  A
C1063      C1072   1.405       .  A
C1068      C1069   1.395       .  A
C1068      H1073   1.083       .  S
C1069      C1070   1.405       .  A
C1069      H1074   1.083       .  S
C1070      C1071   1.404       .  A
C1071      C1072   1.394       .  A
C1071      H1075   1.083   1_565  S
C1072      H1076   1.083       .  S
C1077      C1078   1.406       .  A
C1077      C1082   1.394       .  A
C1077      H1087   1.083       .  S
C1078      C1083   1.483       .  S
C1078      C1079   1.406       .  A
C1079      C1080   1.396       .  A
C1079      H1084   1.082       .  S
C1080      C1081   1.404       .  A
C1080      H1085   1.083       .  S
C1081      C1082   1.403       .  A
C1082      H1086   1.083       .  S
C1083      C1088   1.406       .  A
C1083      C1092   1.405       .  A
C1088      C1089   1.394       .  A
C1088      H1093   1.083       .  S
C1089      C1090   1.403       .  A
C1089      H1094   1.083       .  S
C1090      C1091   1.406       .  A
C1091      C1092   1.396       .  A
C1091      H1095   1.083   1_455  S
C1092      H1096   1.083       .  S
C1097      C1098   1.405       .  A
C1097      C1102   1.398       .  A
C1097      H1107   1.083       .  S
C1098      C1103   1.489       .  S
C1098      C1099   1.409       .  A
C1099      C1100   1.401       .  A
C1099      H1104   1.083       .  S
C1100      C1101   1.401       .  A
C1100      H1105   1.083       .  S
C1101      C1102   1.406       .  A
C1102      H1106   1.083       .  S
C1103      C2384   1.409       .  A
C1103      C2388   1.402       .  A
C1108      C2379   1.409   1_455  A
C1108      C1109   1.404       .  A
C1108      H1113   1.083       .  S
C1109      C1110   1.406       .  A
C1109      H1114   1.083       .  S
C1110      C1111   1.409       .  A
C1111      C1112   1.395   1_455  A
C1111      H1115   1.083       .  S
C1112      C2379   1.402       .  A
C1112      H1116   1.083       .  S
C1117      C1122   1.403       .  A
C1117      H1127   1.083       .  S
C1118      C1123   1.488       .  S
C1119      C1120   1.396   1_545  A
C1120      C1121   1.410       .  A
C1120      H1125   1.083       .  S
C1121      C1122   1.405       .  A
C1122      H1126   1.083       .  S
C1123      C1128   1.404       .  A
C1123      C1132   1.409       .  A
C1128      C1129   1.397       .  A
C1128      H1133   1.083       .  S
C1129      C1130   1.405       .  A
C1129      H1134   1.083       .  S
C1130      C1131   1.402       .  A
C1131      C1132   1.402       .  A
C1131      H1135   1.083       .  S
C1132      H1136   1.083       .  S
C1137      C1138   1.410       .  A
C1137      C1142   1.405       .  A
C1137      H1147   1.083       .  S
C1138      C1143   1.487       .  S
C1138      C1139   1.401       .  A
C1139      C1140   1.393       .  A
C1139      H1144   1.083       .  S
C1140      C1141   1.409       .  A
C1140      H1145   1.083       .  S
C1141      C1142   1.406       .  A
C1142      H1146   1.083       .  S
C1143      C1148   1.405       .  A
C1143      C1152   1.409       .  A
C1148      C1149   1.399       .  A
C1148      H1153   1.083       .  S
C1149      C1150   1.406       .  A
C1149      H1154   1.083       .  S
C1150      C1151   1.400       .  A
C1151      C1152   1.399       .  A
C1151      H1155   1.083       .  S
C1152      H1156   1.083       .  S
C1157      C2434   1.409   1_455  A
C1157      C1162   1.405       .  A
C1157      H1167   1.083       .  S
C1158      C1163   1.490       .  S
C1158      C2433   1.409       .  A
C1158      C2435   1.402       .  A
C1159      C2434   1.402       .  A
C1159      C1160   1.396   1_655  A
C1159      H2440   1.083       .  S
C1160      C1161   1.409       .  A
C1160      H1165   1.083       .  S
C1161      C1162   1.406       .  A
C1162      H1166   1.083       .  S
C1163      C1168   1.405       .  A
C1163      C1172   1.409       .  A
H1164      C2435   1.083       .  S
C1168      C1169   1.398       .  A
C1168      H1173   1.083       .  S
C1169      C1170   1.406       .  A
C1169      H1174   1.083       .  S
C1170      C1171   1.402       .  A
C1171      C1172   1.401       .  A
C1171      H1175   1.083       .  S
C1172      H1176   1.083       .  S
C1177      C1178   1.409       .  A
C1177      C1182   1.400       .  A
C1177      H1187   1.083       .  S
C1178      C1183   1.488       .  S
C1178      C1179   1.405       .  A
C1179      C1180   1.398       .  A
C1179      H1184   1.083       .  S
C1180      C1181   1.404       .  A
C1180      H1185   1.083       .  S
C1181      C1182   1.400       .  A
C1182      H1186   1.083       .  S
C1188      C1189   1.394       .  A
C1188      H1193   1.083   1_565  S
C1189      C1190   1.407       .  A
C1189      H1194   1.083       .  S
C1190      C1191   1.405       .  A
C1191      C1192   1.404       .  A
C1191      H1195   1.083       .  S
C1197      C1198   1.404       .  A
C1197      C1202   1.397       .  A
C1197      H1207   1.083       .  S
C1198      C1203   1.489       .  S
C1198      C1199   1.409       .  A
C1199      C1200   1.404       .  A
C1199      H1204   1.083       .  S
C1200      C1201   1.403       .  A
C1200      H1205   1.083       .  S
C1201      C1202   1.405       .  A
C1202      H1206   1.083       .  S
C1203      C1208   1.409       .  A
C1203      C1212   1.402       .  A
C1208      C1209   1.403       .  A
C1208      H1213   1.083       .  S
C1209      C1210   1.405       .  A
C1209      H1214   1.083       .  S
C1210      C1211   1.410       .  A
C1211      C1212   1.398       .  A
C1211      H1215   1.083       .  S
C1212      H1216   1.083       .  S
C1217      C1218   1.404       .  A
C1217      C1222   1.394       .  A
C1217      H1227   1.083       .  S
C1218      C1223   1.470       .  S
C1218      C1219   1.402       .  A
C1219      C1220   1.392       .  A
C1219      H1224   1.083       .  S
C1220      C1221   1.404       .  A
C1220      H1225   1.083       .  S
C1221      C1222   1.403       .  A
C1222      H1226   1.083       .  S
C1223      C1228   1.400       .  A
C1223      C1232   1.404       .  A
C1228      C1229   1.390       .  A
C1228      H1233   1.083       .  S
C1229      C1230   1.406       .  A
C1229      H1234   1.083       .  S
C1230      C1231   1.403       .  A
C1231      C1232   1.396       .  A
C1231      H1235   1.083       .  S
C1232      H1236   1.083       .  S
C1237      C1238   1.402       .  A
C1237      C1242   1.397       .  A
C1237      H1247   1.083       .  S
C1238      C1243   1.472       .  S
C1238      C1239   1.402       .  A
C1239      C1240   1.393       .  A
C1239      H1244   1.084       .  S
C1240      C1241   1.405       .  A
C1240      H1245   1.083       .  S
C1241      C1242   1.407       .  A
C1242      H1246   1.083       .  S
C1243      C1248   1.405       .  A
C1243      C1252   1.400       .  A
C1248      C1249   1.400       .  A
C1248      H1253   1.083       .  S
C1249      C1250   1.405       .  A
C1249      H1254   1.083       .  S
C1250      C1251   1.406       .  A
C1251      C1252   1.390       .  A
C1251      H1255   1.083       .  S
C1252      H1256   1.083       .  S
C1257      C1258   1.406       .  A
C1257      C1262   1.401       .  A
C1257      H1267   1.083       .  S
C1258      C1263   1.477       .  S
C1258      C1259   1.400       .  A
C1259      C1260   1.392       .  A
C1259      H1264   1.083       .  S
C1260      C1261   1.407       .  A
C1260      H1265   1.083       .  S
C1261      C1262   1.405       .  A
C1262      H1266   1.083       .  S
C1263      C1268   1.402       .  A
C1263      C1272   1.404       .  A
C1268      C1269   1.397       .  A
C1268      H1273   1.083       .  S
C1269      C1270   1.407       .  A
C1269      H1274   1.083       .  S
C1270      C1271   1.406       .  A
C1271      C1272   1.397       .  A
C1271      H1275   1.083       .  S
C1272      H1276   1.083       .  S
Zn1277     O1281   1.946       .  S
Zn1277     O1282   1.995       .  S
Zn1277     O1286   1.987       .  S
Zn1277     O1293   1.986       .  S
Zn1278     O1281   1.950       .  S
Zn1278     O1283   2.009       .  S
Zn1278     O1285   2.006       .  S
Zn1278     O1289   1.983       .  S
Zn1279     O1281   1.948       .  S
Zn1279     O1284   1.997       .  S
Zn1279     O1287   2.009       .  S
Zn1279     O1290   1.987       .  S
Zn1280     O1281   1.983       .  S
Zn1280     O1288   2.073       .  S
Zn1280     O1291   2.068       .  S
Zn1280     O1292   2.076       .  S
O1282      C1294   1.270       .  A
O1283      C1295   1.272       .  A
O1284      C1296   1.270       .  A
O1285      C1294   1.271       .  A
O1286      C1296   1.269       .  A
O1287      C1295   1.272       .  A
O1288      C1297   1.281       .  A
O1289      C1298   1.272       .  A
O1290      C1297   1.272       .  A
O1291      C1298   1.281       .  A
O1292      C1299   1.281       .  A
O1293      C1299   1.271       .  A
C1294      C1879   1.475       .  S
C1295      C1908   1.479       .  S
C1296      C1859   1.467       .  S
C1297      C1799   1.489       .  S
C1298      C1828   1.484       .  S
C1299      C1848   1.489       .  S
C1300      H1301   1.111       .  S
C1300      C1306   1.539       .  S
C1300      C1305   1.540       .  S
C1300      C1304   1.538       .  S
C1302      H1303   1.111       .  S
C1302      C1308   1.540       .  S
C1302      C1307   1.536       .  S
C1302      C1309   1.539       .  S
C1304      C1307   1.374       .  D
C1304      C1819   1.482       .  S
C1305      C1308   1.377       .  D
C1305      C1808   1.489       .  S
C1306      C1309   1.377       .  D
C1306      C1839   1.488       .  S
C1307      C1768   1.487       .  S
C1308      C1739   1.487       .  S
C1309      C1788   1.487       .  S
Zn1310     O1314   1.948       .  S
Zn1310     O1315   1.980       .  S
Zn1310     O1319   2.011       .  S
Zn1310     O1326   1.996       .  S
Zn1311     O1314   1.986       .  S
Zn1311     O1316   2.071       .  S
Zn1311     O1318   2.073       .  S
Zn1311     O1322   2.071       .  S
Zn1312     O1314   1.948       .  S
Zn1312     O1317   2.002       .  S
Zn1312     O1320   1.986       .  S
Zn1312     O1323   2.008       .  S
Zn1313     O1314   1.947       .  S
Zn1313     O1321   1.998       .  S
Zn1313     O1324   1.983       .  S
Zn1313     O1325   2.008       .  S
O1315      C1327   1.272       .  A
O1316      C1328   1.281       .  A
O1317      C1329   1.271       .  A
O1318      C1327   1.281       .  A
O1319      C1329   1.271       .  A
O1320      C1328   1.272       .  A
O1321      C1330   1.271       .  A
O1322      C1331   1.281       .  A
O1323      C1330   1.271       .  A
O1324      C1331   1.271       .  A
O1325      C1332   1.272       .  A
O1326      C1332   1.270       .  A
C1327      C1779   1.487       .  S
C1328      C1748   1.488       .  S
C1329      C1679   1.474       .  S
C1330      C1719   1.474       .  S
C1331      C1759   1.487       .  S
C1332      C1699   1.474       .  S
Zn1333     O1337   1.950       .  S
Zn1333     O1338   1.983       .  S
Zn1333     O1342   2.009       .  S
Zn1333     O1349   2.008       .  S
Zn1334     O1337   1.984       .  S
Zn1334     O1339   2.070       .  S
Zn1334     O1341   2.066       .  S
Zn1334     O1345   2.071       .  S
Zn1335     O1337   1.949       .  S
Zn1335     O1340   2.012       .  S
Zn1335     O1343   1.998       .  S
Zn1335     O1346   2.000       .  S
Zn1336     O1337   1.950       .  S
Zn1336     O1344   2.005       .  S
Zn1336     O1347   1.985       .  S
Zn1336     O1348   2.001       .  S
O1338      C1350   1.272       .  A
O1339      C1351   1.281       .  A
O1340      C1352   1.272       .  A
O1341      C1350   1.280       .  A
O1342      C1352   1.272       .  A
O1343      C1351   1.273       .  A
O1344      C1353   1.271       .  A
O1345      C1354   1.280       .  A
O1346      C1353   1.271       .  A
O1347      C1354   1.272       .  A
O1348      C1355   1.271       .  A
O1349      C1355   1.271       .  A
C1350      C1579   1.484       .  S
C1351      C1568   1.489       .  S
C1352      C1659   1.480       .  S
C1353      C1628   1.474       .  S
C1354      C1599   1.487       .  S
C1355      C1639   1.476       .  S
C1356      H1357   1.111       .  S
C1356      C1362   1.536       .  S
C1356      C1361   1.534       .  S
C1356      C1360   1.534       .  S
C1358      H1359   1.111       .  S
C1358      C1364   1.540       .  S
C1358      C1363   1.539       .  S
C1358      C1365   1.539       .  S
C1360      C1363   1.375       .  D
C1360      C1499   1.484       .  S
C1361      C1364   1.376       .  D
C1361      C1548   1.483       .  S
C1362      C1365   1.377       .  D
C1362      C1519   1.482       .  S
C1363      C1588   1.481       .  S
C1364      C1608   1.485       .  S
C1365      C1559   1.488       .  S
Zn1366     O1370   1.960       .  S
Zn1366     O1371   2.035       .  S
Zn1366     O1375   2.024       .  S
Zn1366     O1382   2.013       .  S
Zn1367     O1370   1.919       .  S
Zn1367     O1372   1.955       .  S
Zn1367     O1374   1.952       .  S
Zn1367     O1378   1.956       .  S
Zn1368     O1370   1.957       .  S
Zn1368     O1373   2.025       .  S
Zn1368     O1376   2.034       .  S
Zn1368     O1379   2.025       .  S
Zn1369     O1370   1.961       .  S
Zn1369     O1377   2.025       .  S
Zn1369     O1380   2.041       .  S
Zn1369     O1381   2.024       .  S
O1371      C1383   1.273       .  A
O1372      C1384   1.266       .  A
O1373      C1385   1.276       .  A
O1374      C1383   1.265       .  A
O1375      C1385   1.276       .  A
O1376      C1384   1.274       .  A
O1377      C1386   1.276       .  A
O1378      C1387   1.265       .  A
O1379      C1386   1.277       .  A
O1380      C1387   1.275       .  A
O1381      C1388   1.276       .  A
O1382      C1388   1.275       .  A
C1383      C1439   1.471       .  S
C1384      C1459   1.473       .  S
C1385      C1539   1.485       .  S
C1386      C1508   1.485       .  S
C1387      C1488   1.476       .  S
C1388      C1528   1.482       .  S
Zn1389     O1393   1.959   1_545  S
Zn1389     O1394   2.013       .  S
Zn1389     O2036   2.011   1_545  S
Zn1389     O1405   2.028       .  S
Zn1390     O2033   2.008   1_545  S
Zn1390     O1401   2.037       .  S
Zn1391     O1399   2.002       .  S
Zn1391     O1402   2.026       .  S
Zn1392     O1393   1.916   1_554  S
Zn1392     O1404   1.958   1_565  S
O1394      C1406   1.274       .  A
O1395     Zn2028   2.008       .  S
O1395      C1407   1.274       .  A
O1396      C1408   1.273       .  A
O1397      C1406   1.274       .  A
O1398     Zn2027   2.010       .  S
O1398      C1408   1.274       .  A
O1399      C1407   1.273       .  A
O1400      C1409   1.267       .  A
O1401      C1410   1.274   1_556  A
O1402      C1409   1.273   1_556  A
O1403      C1410   1.267       .  A
O1404      C1411   1.267       .  A
O1405      C1411   1.274   1_556  A
C1406      C1688   1.479       .  S
C1407      C1708   1.475       .  S
C1408      C1728   1.476       .  S
C1409      C1468   1.470       .  S
C1410      C1479   1.472       .  S
C1411      C1448   1.470       .  S
Zn1412     O1416   1.920       .  S
Zn1412     O1417   1.973       .  S
Zn1412     O2066   1.963       .  S
Zn1413     O1416   1.961       .  S
Zn1413     O1420   2.044       .  S
Zn1413     O2062   2.014       .  S
Zn1414     O1419   2.034       .  S
Zn1414     O1422   2.009       .  S
Zn1414     O2063   2.013       .  S
Zn1415     O2054   1.959       .  S
Zn1415     O1426   2.004       .  S
Zn1415     O1427   2.020       .  S
O1416     Zn2053   1.959       .  S
O1417      C1429   1.268       .  A
O1418      C1430   1.275       .  A
O1419      C1431   1.274       .  A
O1420      C1429   1.275       .  A
O1421      C1431   1.268       .  A
O1422      C1430   1.274       .  A
O1423      C1432   1.274       .  A
O1424     Zn2051   2.013   1_545  S
O1424      C1433   1.274       .  A
O1425     Zn2052   2.013   1_545  S
O1425      C1432   1.273       .  A
O1426      C1433   1.273       .  A
O1427      C1434   1.273       .  A
O1428     Zn2050   1.963       .  S
O1428      C1434   1.267       .  A
C1429      C1899   1.478       .  S
C1430      C1648   1.476       .  S
C1431      C1888   1.474       .  S
C1432      C1668   1.478       .  S
C1433      C1619   1.478       .  S
C1434      C1868   1.471       .  S
C1435      C1436   1.401       .  A
C1435      C1440   1.390       .  A
C1435      H1445   1.083       .  S
C1436      C1441   1.477       .  S
C1436      C1437   1.408       .  A
C1437      C1438   1.397       .  A
C1437      H1442   1.082       .  S
C1438      C1439   1.401       .  A
C1438      H1443   1.083       .  S
C1439      C1440   1.406       .  A
C1440      H1444   1.083       .  S
C1441      C1446   1.408       .  A
C1441      C1450   1.401       .  A
C1446      C1447   1.396       .  A
C1446      H1451   1.082       .  S
C1447      C1448   1.401       .  A
C1447      H1452   1.083       .  S
C1448      C1449   1.406       .  A
C1449      C1450   1.390       .  A
C1449      H1453   1.083       .  S
C1450      H1454   1.083       .  S
C1455      C1456   1.401       .  A
C1455      C1460   1.390       .  A
C1455      H1465   1.083       .  S
C1456      C1461   1.477       .  S
C1456      C1457   1.407       .  A
C1457      C1458   1.397       .  A
C1457      H1462   1.083       .  S
C1458      C1459   1.402       .  A
C1458      H1463   1.083       .  S
C1459      C1460   1.407       .  A
C1460      H1464   1.083       .  S
C1461      C1466   1.407       .  A
C1461      C1470   1.401       .  A
C1466      C1467   1.396       .  A
C1466      H1471   1.083       .  S
C1467      C1468   1.402       .  A
C1467      H1472   1.083       .  S
C1468      C1469   1.406       .  A
C1469      C1470   1.391       .  A
C1469      H1473   1.083       .  S
C1470      H1474   1.083       .  S
C1475      C1476   1.409       .  A
C1475      C1480   1.399       .  A
C1475      H1485   1.083       .  S
C1476      C1481   1.481       .  S
C1476      C1477   1.402       .  A
C1477      C1478   1.391       .  A
C1477      H1482   1.083       .  S
C1478      C1479   1.405       .  A
C1478      H1483   1.083       .  S
C1479      C1480   1.402       .  A
C1480      H1484   1.083       .  S
C1481      C1486   1.401       .  A
C1481      C1490   1.409       .  A
C1486      C1487   1.391       .  A
C1486      H1491   1.083       .  S
C1487      C1488   1.408       .  A
C1487      H1492   1.083       .  S
C1488      C1489   1.402       .  A
C1489      C1490   1.398       .  A
C1489      H1493   1.083       .  S
C1490      H1494   1.083       .  S
C1495      C1496   1.406       .  A
C1495      C1500   1.397       .  A
C1495      H1505   1.083       .  S
C1496      C1501   1.491       .  S
C1496      C1497   1.409       .  A
C1497      C1498   1.400       .  A
C1497      H1502   1.082       .  S
C1498      C1499   1.401       .  A
C1498      H1503   1.083       .  S
C1499      C1500   1.404       .  A
C1500      H1504   1.083       .  S
C1501      C1506   1.407       .  A
C1506      H1511   1.083       .  S
C1507      C1508   1.407       .  A
C1507      H1512   1.083       .  S
C1508      C1509   1.406       .  A
C1509      C1510   1.399       .  A
C1509      H1513   1.083       .  S
C1510      H1514   1.083   1_655  S
C1515      C1516   1.408       .  A
C1515      C1520   1.399       .  A
C1515      H1525   1.082       .  S
C1516      C1521   1.487       .  S
C1516      C1517   1.406       .  A
C1517      C1518   1.395       .  A
C1517      H1522   1.083       .  S
C1518      C1519   1.404       .  A
C1518      H1523   1.083       .  S
C1519      C1520   1.401       .  A
C1520      H1524   1.083       .  S
C1521      C2164   1.406       .  A
C1521      C2168   1.406       .  A
C1526      C2159   1.406   1_545  A
C1526      C1527   1.398       .  A
C1526      H1531   1.083   1_545  S
C1527      C1528   1.406       .  A
C1527      H1532   1.083       .  S
C1528      C1529   1.406       .  A
C1529      C1530   1.397       .  A
C1529      H1533   1.083       .  S
C1530      C2159   1.406   1_545  A
C1530      H2172   1.083       .  S
H1534      C2168   1.083       .  S
C1535      C1536   1.406       .  A
C1535      C1540   1.399       .  A
C1535      H1545   1.082       .  S
C1536      C1541   1.489       .  S
C1536      C1537   1.406       .  A
C1537      C1538   1.399       .  A
C1537      H1542   1.083       .  S
C1538      C1539   1.406       .  A
C1538      H1543   1.083       .  S
C1539      C1540   1.406       .  A
C1540      H1544   1.083       .  S
C1541      C1546   1.406       .  A
C1541      C1550   1.409       .  A
C1546      C1547   1.396       .  A
C1546      H1551   1.083       .  S
C1547      C1548   1.403       .  A
C1547      H1552   1.083       .  S
C1548      C1549   1.401       .  A
C1549      C1550   1.400       .  A
C1549      H1553   1.083       .  S
C1550      H1554   1.082       .  S
C1555      C1556   1.405       .  A
C1555      C1560   1.398       .  A
C1555      H1565   1.083       .  S
C1556      C1561   1.492       .  S
C1556      C1557   1.410       .  A
C1557      C1558   1.403       .  A
C1557      H1562   1.083       .  S
C1558      C1559   1.402       .  A
C1558      H1563   1.083       .  S
C1559      C1560   1.405       .  A
C1560      H1564   1.083       .  S
C1561      C2204   1.403       .  A
C1561      C2208   1.410       .  A
C1566      C2199   1.403       .  A
C1566      C1567   1.398   1_565  A
C1566      H2209   1.083       .  S
C1567      C1568   1.409       .  A
C1567      H1572   1.083       .  S
C1568      C1569   1.405       .  A
C1569      C1570   1.404       .  A
C1569      H1573   1.083       .  S
C1570      C2199   1.410   1_545  A
C1570      H1574   1.083       .  S
H1571      C2204   1.083       .  S
C1575      C1580   1.395   1_455  A
C1575      H1585   1.083       .  S
C1576      C1581   1.486       .  S
C1577      C1578   1.403       .  A
C1578      C1579   1.405       .  A
C1578      H1583   1.083       .  S
C1579      C1580   1.408       .  A
C1580      H1584   1.083       .  S
C1581      C1586   1.405       .  A
C1581      C1590   1.409       .  A
C1586      C1587   1.397       .  A
C1586      H1591   1.083       .  S
C1587      C1588   1.404       .  A
C1587      H1592   1.083       .  S
C1588      C1589   1.400       .  A
C1589      C1590   1.400       .  A
C1589      H1593   1.083       .  S
C1590      H1594   1.083       .  S
C1595      C1596   1.410       .  A
C1595      C1600   1.405       .  A
C1595      H1605   1.083       .  S
C1596      C1601   1.489       .  S
C1596      C1597   1.402       .  A
C1597      C1598   1.395       .  A
C1597      H1602   1.083       .  S
C1598      C1599   1.409       .  A
C1598      H1603   1.083       .  S
C1599      C1600   1.405       .  A
C1600      H1604   1.083       .  S
C1601      C1606   1.410       .  A
C1601      C1610   1.405       .  A
C1606      C1607   1.401       .  A
C1606      H1611   1.083       .  S
C1607      C1608   1.400       .  A
C1607      H1612   1.083       .  S
C1608      C1609   1.405       .  A
C1609      C1610   1.398       .  A
C1609      H1613   1.083       .  S
C1610      H1614   1.083       .  S
C1615      C1616   1.406       .  A
C1615      C1620   1.397       .  A
C1615      H1625   1.083       .  S
C1616      C1621   1.485       .  S
C1616      C1617   1.406       .  A
C1617      C1618   1.394       .  A
C1617      H1622   1.082       .  S
C1618      C1619   1.404       .  A
C1618      H1623   1.083       .  S
C1619      C1620   1.406       .  A
C1620      H1624   1.083       .  S
C1621      C1626   1.407       .  A
C1621      C1630   1.406       .  A
C1626      C1627   1.397       .  A
C1626      H1631   1.083       .  S
C1627      C1628   1.404       .  A
C1627      H1632   1.083       .  S
C1628      C1629   1.404       .  A
C1629      C1630   1.394       .  A
C1629      H1633   1.083       .  S
C1630      H1634   1.082       .  S
C1635      C1636   1.407       .  A
C1635      C1640   1.397       .  A
C1635      H1645   1.082       .  S
C1636      C1641   1.485       .  S
C1636      C1637   1.406       .  A
C1637      C1638   1.395       .  A
C1637      H1642   1.082       .  S
C1638      C1639   1.404       .  A
C1638      H1643   1.083       .  S
C1639      C1640   1.404       .  A
C1640      H1644   1.083       .  S
C1641      C1646   1.407       .  A
C1641      C1650   1.406       .  A
C1646      C1647   1.396       .  A
C1646      H1651   1.082       .  S
C1647      C1648   1.404       .  A
C1647      H1652   1.083       .  S
C1648      C1649   1.404       .  A
C1649      C1650   1.395       .  A
C1649      H1653   1.083       .  S
C1650      H1654   1.082       .  S
C1655      C1656   1.407       .  A
C1655      C1660   1.397       .  A
C1655      H1665   1.082       .  S
C1656      C1661   1.489       .  S
C1656      C1657   1.407       .  A
C1657      C1658   1.397       .  A
C1657      H1662   1.082       .  S
C1658      C1659   1.405       .  A
C1658      H1663   1.083       .  S
C1659      C1660   1.405       .  A
C1660      H1664   1.083       .  S
C1661      C1666   1.407       .  A
C1661      C1670   1.407       .  A
C1666      C1667   1.398       .  A
C1666      H1671   1.082       .  S
C1667      C1668   1.404       .  A
C1667      H1672   1.083       .  S
C1668      C1669   1.404       .  A
C1669      C1670   1.397       .  A
C1669      H1673   1.083   1_655  S
C1670      H1674   1.082       .  S
C1675      C1676   1.406       .  A
C1675      C1680   1.394       .  A
C1675      H1685   1.083       .  S
C1676      C1681   1.485       .  S
C1676      C1677   1.407       .  A
C1677      C1678   1.398       .  A
C1677      H1682   1.082       .  S
C1678      C1679   1.405       .  A
C1678      H1683   1.083       .  S
C1679      C1680   1.402       .  A
C1680      H1684   1.083       .  S
C1681      C1686   1.406       .  A
C1681      C1690   1.406       .  A
C1686      C1687   1.395       .  A
C1686      H1691   1.083       .  S
C1687      C1688   1.405       .  A
C1687      H1692   1.083       .  S
C1688      C1689   1.406       .  A
C1689      C1690   1.398       .  A
C1689      H1693   1.083       .  S
C1690      H1694   1.082       .  S
C1695      C1696   1.405       .  A
C1695      C1700   1.396       .  A
C1695      H1705   1.083       .  S
C1696      C1701   1.481       .  S
C1696      C1697   1.405       .  A
C1697      C1698   1.394       .  A
C1697      H1702   1.082       .  S
C1698      C1699   1.403       .  A
C1698      H1703   1.083       .  S
C1699      C1700   1.405       .  A
C1700      H1704   1.083       .  S
C1701      C1706   1.405       .  A
C1701      C1710   1.405       .  A
C1706      C1707   1.395       .  A
C1706      H1711   1.083       .  S
C1707      C1708   1.405       .  A
C1707      H1712   1.083       .  S
C1708      C1709   1.404       .  A
C1709      C1710   1.395       .  A
C1709      H1713   1.083       .  S
C1710      H1714   1.083       .  S
C1715      C1716   1.406       .  A
C1715      C1720   1.394       .  A
C1715      H1725   1.083       .  S
C1716      C1721   1.483       .  S
C1716      C1717   1.406       .  A
C1717      C1718   1.396       .  A
C1717      H1722   1.082       .  S
C1718      C1719   1.404       .  A
C1718      H1723   1.083       .  S
C1719      C1720   1.403       .  A
C1720      H1724   1.083       .  S
C1721      C1726   1.406       .  A
C1721      C1730   1.405       .  A
C1726      C1727   1.394       .  A
C1726      H1731   1.083       .  S
C1727      C1728   1.403       .  A
C1727      H1732   1.083       .  S
C1728      C1729   1.406       .  A
C1729      C1730   1.396       .  A
C1729      H1733   1.083       .  S
C1730      H1734   1.083       .  S
C1735      C1736   1.405       .  A
C1735      C1740   1.398       .  A
C1735      H1745   1.083       .  S
C1736      C1741   1.489       .  S
C1736      C1737   1.409       .  A
C1737      C1738   1.401       .  A
C1737      H1742   1.083       .  S
C1738      C1739   1.401       .  A
C1738      H1743   1.083       .  S
C1739      C1740   1.406       .  A
C1740      H1744   1.083       .  S
C1746      C1747   1.404       .  A
C1746      H1751   1.083       .  S
C1747      C1748   1.406       .  A
C1747      H1752   1.083       .  S
C1748      C1749   1.409       .  A
C1749      C1750   1.395       .  A
C1749      H1753   1.083       .  S
C1750      H1754   1.083       .  S
C1755      C2394   1.409       .  A
C1755      C1760   1.403       .  A
C1755      H1765   1.083       .  S
C1756      C1761   1.488       .  S
C1756      C2393   1.409   1_545  A
C1756      C2395   1.402       .  A
C1757      C2394   1.402       .  A
C1757      C1758   1.396       .  A
C1757      H2400   1.083       .  S
C1758      C1759   1.410       .  A
C1758      H1763   1.083       .  S
C1759      C1760   1.405       .  A
C1760      H1764   1.083       .  S
C1761      C1766   1.404       .  A
C1761      C1770   1.409       .  A
H1762      C2395   1.083       .  S
C1766      C1767   1.397       .  A
C1766      H1771   1.083       .  S
C1767      C1768   1.405       .  A
C1767      H1772   1.083       .  S
C1768      C1769   1.402       .  A
C1769      C1770   1.402       .  A
C1769      H1773   1.083       .  S
C1770      H1774   1.083       .  S
C1775      C1776   1.410       .  A
C1775      C1780   1.405       .  A
C1775      H1785   1.083       .  S
C1776      C1781   1.487       .  S
C1776      C1777   1.401       .  A
C1777      C1778   1.393       .  A
C1777      H1782   1.083       .  S
C1778      C1779   1.409       .  A
C1778      H1783   1.083       .  S
C1779      C1780   1.406       .  A
C1780      H1784   1.083       .  S
C1781      C1786   1.405       .  A
C1781      C1790   1.409       .  A
C1786      C1787   1.399       .  A
C1786      H1791   1.083       .  S
C1787      C1788   1.406       .  A
C1787      H1792   1.083       .  S
C1788      C1789   1.401       .  A
C1789      C1790   1.399       .  A
C1789      H1793   1.083       .  S
C1790      H1794   1.083       .  S
C1795      C1800   1.405       .  A
C1795      H1805   1.083       .  S
C1796      C1801   1.489       .  S
C1797      C1798   1.396       .  A
C1798      C1799   1.409       .  A
C1798      H1803   1.083       .  S
C1799      C1800   1.406       .  A
C1800      H1804   1.083       .  S
C1801      C1806   1.405       .  A
C1801      C1810   1.409       .  A
C1806      C1807   1.398       .  A
C1806      H1811   1.083       .  S
C1807      C1808   1.406       .  A
C1807      H1812   1.083       .  S
C1808      C1809   1.402       .  A
C1809      C1810   1.401       .  A
C1809      H1813   1.083       .  S
C1810      H1814   1.083       .  S
C1815      C1816   1.409       .  A
C1815      C1820   1.400       .  A
C1815      H1825   1.083       .  S
C1816      C1821   1.488       .  S
C1816      C1817   1.405       .  A
C1817      C1818   1.398       .  A
C1817      H1822   1.083       .  S
C1818      C1819   1.404       .  A
C1818      H1823   1.083       .  S
C1819      C1820   1.400       .  A
C1820      H1824   1.083       .  S
C1821      C2464   1.402   1_545  A
C1821      C2468   1.410   1_545  A
C1826      C2459   1.402       .  A
C1826      C1827   1.394       .  A
C1826      H1831   1.083       .  S
C1827      C1828   1.407       .  A
C1827      H1832   1.083       .  S
C1828      C1829   1.405       .  A
C1829      C1830   1.404       .  A
C1829      H1833   1.083       .  S
C1830      C2459   1.410       .  A
C1830      H2472   1.083       .  S
H1834      C2468   1.083       .  S
C1835      C1836   1.404       .  A
C1835      C1840   1.397       .  A
C1835      H1845   1.083       .  S
C1836      C1841   1.489       .  S
C1836      C1837   1.409       .  A
C1837      C1838   1.404       .  A
C1837      H1842   1.083       .  S
C1838      C1839   1.403       .  A
C1838      H1843   1.083       .  S
C1839      C1840   1.405       .  A
C1840      H1844   1.083       .  S
C1841      C1846   1.409       .  A
C1841      C1850   1.402       .  A
C1846      C1847   1.403       .  A
C1846      H1851   1.083       .  S
C1847      C1848   1.405       .  A
C1847      H1852   1.083       .  S
C1848      C1849   1.411       .  A
C1849      C1850   1.398       .  A
C1849      H1853   1.083       .  S
C1850      H1854   1.083       .  S
C1855      C1856   1.404       .  A
C1855      C1860   1.394       .  A
C1855      H1865   1.083       .  S
C1856      C1861   1.470       .  S
C1856      C1857   1.402       .  A
C1857      C1858   1.392       .  A
C1857      H1862   1.083       .  S
C1858      C1859   1.404       .  A
C1858      H1863   1.083       .  S
C1859      C1860   1.403       .  A
C1860      H1864   1.083       .  S
C1861      C1866   1.400       .  A
C1861      C1870   1.404       .  A
C1866      C1867   1.390       .  A
C1866      H1871   1.083       .  S
C1867      C1868   1.406       .  A
C1867      H1872   1.083       .  S
C1868      C1869   1.403       .  A
C1869      C1870   1.396       .  A
C1869      H1873   1.083       .  S
C1870      H1874   1.083       .  S
C1875      C1876   1.402       .  A
C1875      C1880   1.397       .  A
C1875      H1885   1.083       .  S
C1876      C1881   1.472       .  S
C1876      C1877   1.402       .  A
C1877      C1878   1.393       .  A
C1877      H1882   1.084       .  S
C1878      C1879   1.405       .  A
C1878      H1883   1.083       .  S
C1879      C1880   1.407       .  A
C1880      H1884   1.083       .  S
C1881      C1886   1.405       .  A
C1881      C1890   1.400       .  A
C1886      C1887   1.400       .  A
C1886      H1891   1.083       .  S
C1887      C1888   1.405       .  A
C1887      H1892   1.083       .  S
C1888      C1889   1.406       .  A
C1889      C1890   1.390       .  A
C1889      H1893   1.084       .  S
C1890      H1894   1.083       .  S
C1895      C1896   1.406       .  A
C1895      C1900   1.401       .  A
C1895      H1905   1.083       .  S
C1896      C1901   1.477       .  S
C1896      C1897   1.400       .  A
C1897      C1898   1.392       .  A
C1897      H1902   1.083       .  S
C1898      C1899   1.407       .  A
C1898      H1903   1.083       .  S
C1899      C1900   1.405       .  A
C1900      H1904   1.083       .  S
C1901      C1906   1.402       .  A
C1901      C1910   1.404       .  A
C1906      C1907   1.397       .  A
C1906      H1911   1.083       .  S
C1907      C1908   1.407       .  A
C1907      H1912   1.083       .  S
C1908      C1909   1.406       .  A
C1909      C1910   1.397       .  A
C1909      H1913   1.083       .  S
C1910      H1914   1.083       .  S
Zn1915     O1919   1.946       .  S
Zn1915     O1920   1.995       .  S
Zn1915     O1924   1.987       .  S
Zn1915     O1931   1.986       .  S
Zn1916     O1919   1.950       .  S
Zn1916     O1921   2.008       .  S
Zn1916     O1923   2.006       .  S
Zn1916     O1927   1.983       .  S
Zn1917     O1919   1.948       .  S
Zn1917     O1922   1.997       .  S
Zn1917     O1925   2.010       .  S
Zn1917     O1928   1.988       .  S
Zn1918     O1919   1.983       .  S
Zn1918     O1926   2.073       .  S
Zn1918     O1929   2.068       .  S
Zn1918     O1930   2.076       .  S
O1920      C1932   1.270       .  A
O1921      C1933   1.272       .  A
O1922      C1934   1.270       .  A
O1923      C1932   1.271       .  A
O1924      C1934   1.269       .  A
O1925      C1933   1.272       .  A
O1926      C1935   1.281       .  A
O1927      C1936   1.272       .  A
O1928      C1935   1.272       .  A
O1929      C1936   1.281       .  A
O1930      C1937   1.281       .  A
O1931      C1937   1.271       .  A
C1932      C2517   1.475       .  S
C1933      C2546   1.479       .  S
C1934      C2497   1.467       .  S
C1935      C2437   1.489       .  S
C1936      C2466   1.484       .  S
C1937      C2486   1.489       .  S
C1938      H1939   1.111       .  S
C1938      C1944   1.539       .  S
C1938      C1943   1.540       .  S
C1938      C1942   1.538       .  S
C1940      H1941   1.111       .  S
C1940      C1946   1.540       .  S
C1940      C1945   1.536       .  S
C1940      C1947   1.539       .  S
C1942      C1945   1.374       .  D
C1942      C2457   1.482       .  S
C1943      C1946   1.377       .  D
C1943      C2446   1.489       .  S
C1944      C1947   1.377       .  D
C1944      C2477   1.488       .  S
C1945      C2406   1.487       .  S
C1946      C2377   1.487       .  S
C1947      C2426   1.487       .  S
Zn1948     O1952   1.947       .  S
Zn1948     O1953   1.980       .  S
Zn1948     O1957   2.011       .  S
Zn1948     O1964   1.996       .  S
Zn1949     O1952   1.986       .  S
Zn1949     O1954   2.071       .  S
Zn1949     O1956   2.073       .  S
Zn1949     O1960   2.072       .  S
Zn1950     O1952   1.948       .  S
Zn1950     O1955   2.003       .  S
Zn1950     O1958   1.985       .  S
Zn1950     O1961   2.008       .  S
Zn1951     O1952   1.947       .  S
Zn1951     O1959   1.997       .  S
Zn1951     O1962   1.983       .  S
Zn1951     O1963   2.008       .  S
O1953      C1965   1.272       .  A
O1954      C1966   1.281       .  A
O1955      C1967   1.271       .  A
O1956      C1965   1.281       .  A
O1957      C1967   1.271       .  A
O1958      C1966   1.272       .  A
O1959      C1968   1.271       .  A
O1960      C1969   1.281       .  A
O1961      C1968   1.271       .  A
O1962      C1969   1.271       .  A
O1963      C1970   1.272       .  A
O1964      C1970   1.270       .  A
C1965      C2417   1.487       .  S
C1966      C2386   1.488       .  S
C1967      C2317   1.474       .  S
C1968      C2357   1.474       .  S
C1969      C2397   1.487       .  S
C1970      C2337   1.474       .  S
Zn1971     O1975   1.949       .  S
Zn1971     O1976   1.983       .  S
Zn1971     O1980   2.008       .  S
Zn1971     O1987   2.008       .  S
Zn1972     O1975   1.984       .  S
Zn1972     O1977   2.069       .  S
Zn1972     O1979   2.066       .  S
Zn1972     O1983   2.071       .  S
Zn1973     O1975   1.949       .  S
Zn1973     O1978   2.012       .  S
Zn1973     O1981   1.998       .  S
Zn1973     O1984   2.000       .  S
Zn1974     O1975   1.950       .  S
Zn1974     O1982   2.006       .  S
Zn1974     O1985   1.985       .  S
Zn1974     O1986   2.001       .  S
O1976      C1988   1.272       .  A
O1977      C1989   1.281       .  A
O1978      C1990   1.272       .  A
O1979      C1988   1.280       .  A
O1980      C1990   1.272       .  A
O1981      C1989   1.273       .  A
O1982      C1991   1.271       .  A
O1983      C1992   1.280       .  A
O1984      C1991   1.271       .  A
O1985      C1992   1.272       .  A
O1986      C1993   1.271       .  A
O1987      C1993   1.271       .  A
C1988      C2217   1.484       .  S
C1989      C2206   1.489       .  S
C1990      C2297   1.480       .  S
C1991      C2266   1.474       .  S
C1992      C2237   1.487       .  S
C1993      C2277   1.476       .  S
C1994      H1995   1.111       .  S
C1994      C2000   1.536       .  S
C1994      C1999   1.534       .  S
C1994      C1998   1.534       .  S
C1996      H1997   1.111       .  S
C1996      C2002   1.540       .  S
C1996      C2001   1.539       .  S
C1996      C2003   1.539       .  S
C1998      C2001   1.375       .  D
C1998      C2137   1.485       .  S
C1999      C2002   1.376       .  D
C1999      C2186   1.483       .  S
C2000      C2003   1.377       .  D
C2000      C2157   1.482       .  S
C2001      C2226   1.481       .  S
C2002      C2246   1.485       .  S
C2003      C2197   1.488       .  S
Zn2004     O2008   1.960       .  S
Zn2004     O2009   2.035       .  S
Zn2004     O2013   2.024       .  S
Zn2004     O2020   2.013       .  S
Zn2005     O2008   1.919       .  S
Zn2005     O2010   1.955       .  S
Zn2005     O2012   1.952       .  S
Zn2005     O2016   1.955       .  S
Zn2006     O2008   1.957       .  S
Zn2006     O2011   2.025       .  S
Zn2006     O2014   2.035       .  S
Zn2006     O2017   2.025       .  S
Zn2007     O2008   1.961       .  S
Zn2007     O2015   2.025       .  S
Zn2007     O2018   2.042       .  S
Zn2007     O2019   2.024       .  S
O2009      C2021   1.273       .  A
O2010      C2022   1.266       .  A
O2011      C2023   1.276       .  A
O2012      C2021   1.265       .  A
O2013      C2023   1.276       .  A
O2014      C2022   1.274       .  A
O2015      C2024   1.276       .  A
O2016      C2025   1.265       .  A
O2017      C2024   1.277       .  A
O2018      C2025   1.275       .  A
O2019      C2026   1.276       .  A
O2020      C2026   1.275       .  A
C2021      C2077   1.471       .  S
C2022      C2097   1.473       .  S
C2023      C2177   1.485       .  S
C2024      C2146   1.485       .  S
C2025      C2126   1.476       .  S
C2026      C2166   1.482       .  S
Zn2027     O2031   1.959       .  S
Zn2027     O2032   2.013       .  S
Zn2027     O2043   2.028       .  S
Zn2028     O2039   2.037       .  S
Zn2029     O2037   2.002       .  S
Zn2029     O2040   2.026       .  S
Zn2030     O2031   1.916   1_554  S
Zn2030     O2042   1.958       .  S
O2032      C2044   1.274       .  A
O2033      C2045   1.274       .  A
O2034      C2046   1.272       .  A
O2035      C2044   1.274       .  A
O2036      C2046   1.274       .  A
O2037      C2045   1.273       .  A
O2038      C2047   1.267       .  A
O2039      C2048   1.274   1_556  A
O2040      C2047   1.273   1_556  A
O2041      C2048   1.267       .  A
O2042      C2049   1.267       .  A
O2043      C2049   1.274   1_556  A
C2044      C2326   1.479       .  S
C2045      C2346   1.476       .  S
C2046      C2366   1.476       .  S
C2047      C2106   1.470       .  S
C2048      C2117   1.472       .  S
C2049      C2086   1.470       .  S
Zn2050     O2054   1.921       .  S
Zn2050     O2055   1.974   1_545  S
Zn2051     O2054   1.961   1_565  S
Zn2051     O2058   2.044       .  S
Zn2052     O2057   2.034       .  S
Zn2052     O2060   2.009       .  S
Zn2053     O2064   2.004       .  S
Zn2053     O2065   2.020       .  S
O2055      C2067   1.268       .  A
O2056      C2068   1.274       .  A
O2057      C2069   1.274       .  A
O2058      C2067   1.275       .  A
O2059      C2069   1.268       .  A
O2060      C2068   1.274       .  A
O2061      C2070   1.274       .  A
O2062      C2071   1.274       .  A
O2063      C2070   1.273       .  A
O2064      C2071   1.273       .  A
O2065      C2072   1.273       .  A
O2066      C2072   1.267       .  A
C2067      C2537   1.478       .  S
C2068      C2286   1.476       .  S
C2069      C2526   1.474       .  S
C2070      C2306   1.478       .  S
C2071      C2257   1.478       .  S
C2072      C2506   1.471       .  S
C2073      C2074   1.401       .  A
C2073      C2078   1.390       .  A
C2073      H2083   1.083       .  S
C2074      C2079   1.477       .  S
C2074      C2075   1.408       .  A
C2075      C2076   1.397       .  A
C2075      H2080   1.082       .  S
C2076      C2077   1.401       .  A
C2076      H2081   1.083       .  S
C2077      C2078   1.406       .  A
C2078      H2082   1.083       .  S
C2079      C2084   1.408       .  A
C2079      C2088   1.401       .  A
C2084      C2085   1.396       .  A
C2084      H2089   1.082       .  S
C2085      C2086   1.401       .  A
C2085      H2090   1.083       .  S
C2086      C2087   1.406       .  A
C2087      C2088   1.390       .  A
C2087      H2091   1.083       .  S
C2088      H2092   1.083       .  S
C2093      C2094   1.401       .  A
C2093      C2098   1.390       .  A
C2093      H2103   1.083       .  S
C2094      C2099   1.477       .  S
C2094      C2095   1.407       .  A
C2095      C2096   1.397       .  A
C2095      H2100   1.083       .  S
C2096      C2097   1.402       .  A
C2096      H2101   1.083       .  S
C2097      C2098   1.407       .  A
C2098      H2102   1.083       .  S
C2099      C2104   1.407       .  A
C2099      C2108   1.401       .  A
C2104      C2105   1.396       .  A
C2104      H2109   1.083       .  S
C2105      C2106   1.402       .  A
C2105      H2110   1.083       .  S
C2106      C2107   1.406       .  A
C2107      C2108   1.391       .  A
C2107      H2111   1.083       .  S
C2108      H2112   1.083       .  S
C2113      C2114   1.409       .  A
C2113      C2118   1.399       .  A
C2113      H2123   1.083       .  S
C2114      C2119   1.481       .  S
C2114      C2115   1.402       .  A
C2115      C2116   1.391       .  A
C2115      H2120   1.083       .  S
C2116      C2117   1.405       .  A
C2116      H2121   1.083       .  S
C2117      C2118   1.402       .  A
C2118      H2122   1.083       .  S
C2119      C2124   1.401       .  A
C2119      C2128   1.409       .  A
C2124      C2125   1.391       .  A
C2124      H2129   1.083       .  S
C2125      C2126   1.408       .  A
C2125      H2130   1.083       .  S
C2126      C2127   1.402       .  A
C2127      C2128   1.398       .  A
C2127      H2131   1.083       .  S
C2128      H2132   1.083       .  S
C2133      C2134   1.406       .  A
C2133      C2138   1.397       .  A
C2133      H2143   1.083       .  S
C2134      C2139   1.491       .  S
C2134      C2135   1.409       .  A
C2135      C2136   1.400       .  A
C2135      H2140   1.082       .  S
C2136      C2137   1.401       .  A
C2136      H2141   1.083       .  S
C2137      C2138   1.404       .  A
C2138      H2142   1.083       .  S
C2139      C2144   1.407       .  A
C2144      H2149   1.083       .  S
C2145      C2146   1.407       .  A
C2145      H2150   1.083       .  S
C2146      C2147   1.406       .  A
C2147      C2148   1.399       .  A
C2147      H2151   1.083       .  S
C2148      H2152   1.083   1_655  S
C2153      C2154   1.408       .  A
C2153      C2158   1.399       .  A
C2153      H2163   1.082       .  S
C2154      C2159   1.487       .  S
C2154      C2155   1.406       .  A
C2155      C2156   1.395       .  A
C2155      H2160   1.083       .  S
C2156      C2157   1.404       .  A
C2156      H2161   1.083       .  S
C2157      C2158   1.401       .  A
C2158      H2162   1.083       .  S
C2164      C2165   1.398       .  A
C2164      H2169   1.083       .  S
C2165      C2166   1.406       .  A
C2165      H2170   1.083       .  S
C2166      C2167   1.406       .  A
C2167      C2168   1.397       .  A
C2167      H2171   1.083       .  S
C2173      C2174   1.406       .  A
C2173      C2178   1.399       .  A
C2173      H2183   1.082       .  S
C2174      C2179   1.490       .  S
C2174      C2175   1.406       .  A
C2175      C2176   1.399       .  A
C2175      H2180   1.083       .  S
C2176      C2177   1.406       .  A
C2176      H2181   1.083       .  S
C2177      C2178   1.406       .  A
C2178      H2182   1.083       .  S
C2179      C2184   1.406       .  A
C2179      C2188   1.409       .  A
C2184      C2185   1.396       .  A
C2184      H2189   1.083       .  S
C2185      C2186   1.403       .  A
C2185      H2190   1.083       .  S
C2186      C2187   1.401       .  A
C2187      C2188   1.400       .  A
C2187      H2191   1.083       .  S
C2188      H2192   1.082       .  S
C2193      C2194   1.405       .  A
C2193      C2198   1.398       .  A
C2193      H2203   1.083       .  S
C2194      C2199   1.492       .  S
C2194      C2195   1.410       .  A
C2195      C2196   1.403       .  A
C2195      H2200   1.083       .  S
C2196      C2197   1.402       .  A
C2196      H2201   1.083       .  S
C2197      C2198   1.405       .  A
C2198      H2202   1.083       .  S
C2204      C2205   1.398       .  A
C2205      C2206   1.409       .  A
C2205      H2210   1.083       .  S
C2206      C2207   1.405       .  A
C2207      C2208   1.404       .  A
C2207      H2211   1.083       .  S
C2208      H2212   1.083       .  S
C2213      C2218   1.395   1_455  A
C2213      H2223   1.083       .  S
C2214      C2219   1.486       .  S
C2215      C2216   1.403       .  A
C2216      C2217   1.405       .  A
C2216      H2221   1.083       .  S
C2217      C2218   1.408       .  A
C2218      H2222   1.083       .  S
C2219      C2224   1.405       .  A
C2219      C2228   1.409       .  A
C2224      C2225   1.397       .  A
C2224      H2229   1.083       .  S
C2225      C2226   1.404       .  A
C2225      H2230   1.083       .  S
C2226      C2227   1.400       .  A
C2227      C2228   1.400       .  A
C2227      H2231   1.083       .  S
C2228      H2232   1.083       .  S
C2233      C2234   1.410       .  A
C2233      C2238   1.405       .  A
C2233      H2243   1.083       .  S
C2234      C2239   1.489       .  S
C2234      C2235   1.402       .  A
C2235      C2236   1.395       .  A
C2235      H2240   1.083       .  S
C2236      C2237   1.409       .  A
C2236      H2241   1.083       .  S
C2237      C2238   1.405       .  A
C2238      H2242   1.083       .  S
C2239      C2244   1.410       .  A
C2239      C2248   1.405       .  A
C2244      C2245   1.401       .  A
C2244      H2249   1.083       .  S
C2245      C2246   1.400       .  A
C2245      H2250   1.083       .  S
C2246      C2247   1.405       .  A
C2247      C2248   1.398       .  A
C2247      H2251   1.083       .  S
C2248      H2252   1.083       .  S
C2253      C2254   1.406       .  A
C2253      C2258   1.397       .  A
C2253      H2263   1.083       .  S
C2254      C2259   1.485       .  S
C2254      C2255   1.406       .  A
C2255      C2256   1.395       .  A
C2255      H2260   1.082       .  S
C2256      C2257   1.404       .  A
C2256      H2261   1.083       .  S
C2257      C2258   1.406       .  A
C2258      H2262   1.083       .  S
C2259      C2264   1.407       .  A
C2259      C2268   1.406       .  A
C2264      C2265   1.397       .  A
C2264      H2269   1.083       .  S
C2265      C2266   1.403       .  A
C2265      H2270   1.083       .  S
C2266      C2267   1.404       .  A
C2267      C2268   1.394       .  A
C2267      H2271   1.083       .  S
C2268      H2272   1.082       .  S
C2273      C2274   1.407       .  A
C2273      C2278   1.397       .  A
C2273      H2283   1.082       .  S
C2274      C2279   1.485       .  S
C2274      C2275   1.406       .  A
C2275      C2276   1.395       .  A
C2275      H2280   1.082       .  S
C2276      C2277   1.404       .  A
C2276      H2281   1.083       .  S
C2277      C2278   1.404       .  A
C2278      H2282   1.083       .  S
C2279      C2284   1.407       .  A
C2279      C2288   1.406       .  A
C2284      C2285   1.396       .  A
C2284      H2289   1.082       .  S
C2285      C2286   1.404       .  A
C2285      H2290   1.083       .  S
C2286      C2287   1.404       .  A
C2287      C2288   1.395       .  A
C2287      H2291   1.083       .  S
C2288      H2292   1.082       .  S
C2293      C2294   1.407       .  A
C2293      C2298   1.397       .  A
C2293      H2303   1.082       .  S
C2294      C2299   1.489       .  S
C2294      C2295   1.407       .  A
C2295      C2296   1.397       .  A
C2295      H2300   1.082       .  S
C2296      C2297   1.405       .  A
C2296      H2301   1.083       .  S
C2297      C2298   1.405       .  A
C2298      H2302   1.083       .  S
C2299      C2304   1.407       .  A
C2299      C2308   1.407       .  A
C2304      C2305   1.398       .  A
C2304      H2309   1.082       .  S
C2305      C2306   1.404       .  A
C2305      H2310   1.083       .  S
C2306      C2307   1.404       .  A
C2307      C2308   1.397       .  A
C2307      H2311   1.083   1_655  S
C2308      H2312   1.082       .  S
C2313      C2314   1.406       .  A
C2313      C2318   1.394       .  A
C2313      H2323   1.083       .  S
C2314      C2319   1.485       .  S
C2314      C2315   1.407       .  A
C2315      C2316   1.398       .  A
C2315      H2320   1.082       .  S
C2316      C2317   1.405       .  A
C2316      H2321   1.083       .  S
C2317      C2318   1.402       .  A
C2318      H2322   1.083       .  S
C2319      C2324   1.406       .  A
C2319      C2328   1.406       .  A
C2324      C2325   1.395       .  A
C2324      H2329   1.083       .  S
C2325      C2326   1.404       .  A
C2325      H2330   1.083       .  S
C2326      C2327   1.406       .  A
C2327      C2328   1.398       .  A
C2327      H2331   1.083       .  S
C2328      H2332   1.082       .  S
C2333      C2334   1.406       .  A
C2333      C2338   1.396       .  A
C2333      H2343   1.083       .  S
C2334      C2339   1.481       .  S
C2334      C2335   1.405       .  A
C2335      C2336   1.394       .  A
C2335      H2340   1.082       .  S
C2336      C2337   1.403       .  A
C2336      H2341   1.083       .  S
C2337      C2338   1.405       .  A
C2338      H2342   1.083       .  S
C2339      C2344   1.405       .  A
C2339      C2348   1.405       .  A
C2344      C2345   1.395       .  A
C2344      H2349   1.083       .  S
C2345      C2346   1.405       .  A
C2345      H2350   1.083       .  S
C2346      C2347   1.404       .  A
C2347      C2348   1.395       .  A
C2347      H2351   1.083   1_565  S
C2348      H2352   1.083       .  S
C2353      C2354   1.406       .  A
C2353      C2358   1.394       .  A
C2353      H2363   1.083       .  S
C2354      C2359   1.483       .  S
C2354      C2355   1.406       .  A
C2355      C2356   1.396       .  A
C2355      H2360   1.082       .  S
C2356      C2357   1.404       .  A
C2356      H2361   1.083       .  S
C2357      C2358   1.403       .  A
C2358      H2362   1.083       .  S
C2359      C2364   1.406       .  A
C2359      C2368   1.405       .  A
C2364      C2365   1.395       .  A
C2364      H2369   1.083       .  S
C2365      C2366   1.403       .  A
C2365      H2370   1.083       .  S
C2366      C2367   1.406       .  A
C2367      C2368   1.396       .  A
C2367      H2371   1.083       .  S
C2368      H2372   1.083       .  S
C2373      C2374   1.405       .  A
C2373      C2378   1.398       .  A
C2373      H2383   1.083       .  S
C2374      C2379   1.489       .  S
C2374      C2375   1.409       .  A
C2375      C2376   1.401       .  A
C2375      H2380   1.083       .  S
C2376      C2377   1.401       .  A
C2376      H2381   1.083       .  S
C2377      C2378   1.406       .  A
C2378      H2382   1.083       .  S
C2384      C2385   1.404       .  A
C2384      H2389   1.083       .  S
C2385      C2386   1.406       .  A
C2385      H2390   1.083       .  S
C2386      C2387   1.409       .  A
C2387      C2388   1.395       .  A
C2387      H2391   1.083       .  S
C2388      H2392   1.083       .  S
C2393      C2398   1.403       .  A
C2393      H2403   1.083       .  S
C2394      C2399   1.488       .  S
C2395      C2396   1.396   1_545  A
C2396      C2397   1.410       .  A
C2396      H2401   1.083       .  S
C2397      C2398   1.405       .  A
C2398      H2402   1.083       .  S
C2399      C2404   1.404       .  A
C2399      C2408   1.409       .  A
C2404      C2405   1.397       .  A
C2404      H2409   1.083       .  S
C2405      C2406   1.405       .  A
C2405      H2410   1.083       .  S
C2406      C2407   1.402       .  A
C2407      C2408   1.402       .  A
C2407      H2411   1.083       .  S
C2408      H2412   1.083       .  S
C2413      C2414   1.410       .  A
C2413      C2418   1.405       .  A
C2413      H2423   1.083       .  S
C2414      C2419   1.487       .  S
C2414      C2415   1.401       .  A
C2415      C2416   1.393       .  A
C2415      H2420   1.083       .  S
C2416      C2417   1.409       .  A
C2416      H2421   1.083       .  S
C2417      C2418   1.406       .  A
C2418      H2422   1.083       .  S
C2419      C2424   1.405       .  A
C2419      C2428   1.409       .  A
C2424      C2425   1.399       .  A
C2424      H2429   1.083       .  S
C2425      C2426   1.406       .  A
C2425      H2430   1.083       .  S
C2426      C2427   1.400       .  A
C2427      C2428   1.399       .  A
C2427      H2431   1.083       .  S
C2428      H2432   1.083       .  S
C2433      C2438   1.405       .  A
C2433      H2443   1.083       .  S
C2434      C2439   1.490       .  S
C2435      C2436   1.396       .  A
C2436      C2437   1.409       .  A
C2436      H2441   1.083       .  S
C2437      C2438   1.406       .  A
C2438      H2442   1.083       .  S
C2439      C2444   1.405       .  A
C2439      C2448   1.409       .  A
C2444      C2445   1.398       .  A
C2444      H2449   1.083       .  S
C2445      C2446   1.406       .  A
C2445      H2450   1.083       .  S
C2446      C2447   1.402       .  A
C2447      C2448   1.401       .  A
C2447      H2451   1.083       .  S
C2448      H2452   1.083       .  S
C2453      C2454   1.409       .  A
C2453      C2458   1.400       .  A
C2453      H2463   1.083       .  S
C2454      C2459   1.488       .  S
C2454      C2455   1.405       .  A
C2455      C2456   1.398       .  A
C2455      H2460   1.083       .  S
C2456      C2457   1.404       .  A
C2456      H2461   1.083       .  S
C2457      C2458   1.400       .  A
C2458      H2462   1.083       .  S
C2464      C2465   1.394       .  A
C2464      H2469   1.083   1_565  S
C2465      C2466   1.407       .  A
C2465      H2470   1.083       .  S
C2466      C2467   1.405       .  A
C2467      C2468   1.404       .  A
C2467      H2471   1.083       .  S
C2473      C2474   1.404       .  A
C2473      C2478   1.397       .  A
C2473      H2483   1.083       .  S
C2474      C2479   1.489       .  S
C2474      C2475   1.409       .  A
C2475      C2476   1.404       .  A
C2475      H2480   1.083       .  S
C2476      C2477   1.403       .  A
C2476      H2481   1.083       .  S
C2477      C2478   1.405       .  A
C2478      H2482   1.083       .  S
C2479      C2484   1.409       .  A
C2479      C2488   1.402       .  A
C2484      C2485   1.403       .  A
C2484      H2489   1.083       .  S
C2485      C2486   1.405       .  A
C2485      H2490   1.083       .  S
C2486      C2487   1.411       .  A
C2487      C2488   1.398       .  A
C2487      H2491   1.083       .  S
C2488      H2492   1.083       .  S
C2493      C2494   1.404       .  A
C2493      C2498   1.394       .  A
C2493      H2503   1.083       .  S
C2494      C2499   1.470       .  S
C2494      C2495   1.402       .  A
C2495      C2496   1.392       .  A
C2495      H2500   1.083       .  S
C2496      C2497   1.404       .  A
C2496      H2501   1.083       .  S
C2497      C2498   1.403       .  A
C2498      H2502   1.083       .  S
C2499      C2504   1.400       .  A
C2499      C2508   1.404       .  A
C2504      C2505   1.390       .  A
C2504      H2509   1.083       .  S
C2505      C2506   1.406       .  A
C2505      H2510   1.083       .  S
C2506      C2507   1.403       .  A
C2507      C2508   1.396       .  A
C2507      H2511   1.083       .  S
C2508      H2512   1.083       .  S
C2513      C2514   1.402       .  A
C2513      C2518   1.397       .  A
C2513      H2523   1.083       .  S
C2514      C2519   1.472       .  S
C2514      C2515   1.402       .  A
C2515      C2516   1.393       .  A
C2515      H2520   1.084       .  S
C2516      C2517   1.405       .  A
C2516      H2521   1.083       .  S
C2517      C2518   1.407       .  A
C2518      H2522   1.083       .  S
C2519      C2524   1.405       .  A
C2519      C2528   1.400       .  A
C2524      C2525   1.400       .  A
C2524      H2529   1.083       .  S
C2525      C2526   1.405       .  A
C2525      H2530   1.083       .  S
C2526      C2527   1.406       .  A
C2527      C2528   1.390       .  A
C2527      H2531   1.083       .  S
C2528      H2532   1.083       .  S
C2533      C2534   1.406       .  A
C2533      C2538   1.401       .  A
C2533      H2543   1.083       .  S
C2534      C2539   1.477       .  S
C2534      C2535   1.400       .  A
C2535      C2536   1.392       .  A
C2535      H2540   1.083       .  S
C2536      C2537   1.407       .  A
C2536      H2541   1.083       .  S
C2537      C2538   1.405       .  A
C2538      H2542   1.083       .  S
C2539      C2544   1.402       .  A
C2539      C2548   1.404       .  A
C2544      C2545   1.397       .  A
C2544      H2549   1.083       .  S
C2545      C2546   1.407       .  A
C2545      H2550   1.083       .  S
C2546      C2547   1.406       .  A
C2547      C2548   1.397       .  A
C2547      H2551   1.083       .  S
C2548      H2552   1.083       .  S
