geometry optimzed in LAMMPS
_audit_creation_date              2020-12-01 
_audit_creation_method            'lammps2cif' 
_symmetry_space_group_name_H-M    'P1' 
_symmetry_Int_Tables_number       1 
_symmetry_cell_setting            triclinic 
loop_ 
_symmetry_equiv_pos_as_xyz 
  x,y,z 
_cell_length_a                    27.46249889 
_cell_length_b                    27.470094345111217 
_cell_length_c                    29.76617540050234 
_cell_angle_alpha                 90.2408868037557 
_cell_angle_beta                  90.07881242096963 
_cell_angle_gamma                 89.98630149579633 
loop_ 
_atom_site_label 
_atom_site_type_symbol 
_atom_site_fract_x 
_atom_site_fract_y 
_atom_site_fract_z 
_atom_site_charge 
O1          O  0.54948715  0.78275794  0.45299424    -0.72500
O2          O  0.45073898  0.78227472  0.04312888    -0.72800
O3          O  0.45096081  0.78264484  0.45355853    -0.72600
O4          O  0.54937135  0.78221735  0.04295647    -0.72600
O5          O  0.54879854  0.86139223  0.04297568    -0.72600
O6          O  0.45182565  0.86181941  0.45416708    -0.72600
O7          O  0.45179270  0.86143821  0.04360973    -0.72500
O8          O  0.54891551  0.86192363  0.45394697    -0.72700
V9          V  0.50066701  0.78349252  0.49809522     1.35200
V10         V  0.50000997  0.85957100  0.99810531     1.35200
C11         C  0.56586042  0.82258889  0.43830778     0.76700
C12         C  0.43461035  0.82204315  0.05854034     0.76800
C13         C  0.43460655  0.82254920  0.43883313     0.76600
C14         C  0.56579162  0.82204108  0.05809298     0.76600
C15         C  0.67530621  0.78938838  0.37273314     0.79500
N16         N  0.63880201  0.78804211  0.40354296    -0.78800
C17         C  0.60407249  0.82322848  0.40416394     0.81900
N18         N  0.60539142  0.85953026  0.37347764    -0.78800
C19         C  0.64159415  0.86099173  0.34258187     0.82000
N20         N  0.67673100  0.82634601  0.34266036    -0.80500
C21         C  0.32303566  0.79170580  0.37540715     0.79500
N22         N  0.32228612  0.82811405  0.34465825    -0.78800
C23         C  0.35824845  0.86191061  0.34381116     0.81900
N24         N  0.39496130  0.85981155  0.37422693    -0.78800
C25         C  0.39602415  0.82367797  0.40509285     0.82000
N26         N  0.36039507  0.78953143  0.40535752    -0.80500
C27         C  0.67621049  0.79155852  0.12365866     0.79500
N28         N  0.63934713  0.78884346  0.09308470    -0.78800
C29         C  0.60381666  0.82324052  0.09242664     0.81900
N30         N  0.60449824  0.86006121  0.12291318    -0.78800
C31         C  0.64075624  0.86261983  0.15370702     0.82000
N32         N  0.67643057  0.82868949  0.15372866    -0.80500
C33         C  0.32297030  0.79199039  0.12217248     0.79500
N34         N  0.32278251  0.82841502  0.15301647    -0.78800
C35         C  0.35912713  0.86166621  0.15414366     0.81900
N36         N  0.39575906  0.85912779  0.12377385    -0.78800
C37         C  0.39637424  0.82292195  0.09267402     0.82000
N38         N  0.36033336  0.78901900  0.09225593    -0.80500
O39         O  0.60165374  0.01406107  0.20485259    -0.72500
O40         O  0.60223175  0.91606021  0.29389905    -0.72800
O41         O  0.60250890  0.01279239  0.29533310    -0.72600
O42         O  0.60144701  0.91720093  0.20334103    -0.72600
O43         O  0.68067206  0.91672853  0.20325340    -0.72600
O44         O  0.68173294  0.01301804  0.29460372    -0.72600
O45         O  0.68142754  0.91497250  0.29282347    -0.72500
O46         O  0.68086622  0.01476910  0.20507423    -0.72700
V47         V  0.60352054  0.96502355  0.24934445     1.35200
V48         V  0.67965793  0.96486421  0.24892937     1.35200
C49         C  0.64110907  0.03112207  0.18997814     0.76700
C50         C  0.64184560  0.89893204  0.30847007     0.76800
C51         C  0.64225756  0.02915851  0.31043366     0.76600
C52         C  0.64091612  0.90066338  0.18786274     0.76600
O53         O  0.31885008  0.91574320  0.29353738    -0.72500
O54         O  0.31975296  0.01387814  0.20432021    -0.72800
O55         O  0.31942906  0.91582574  0.20389806    -0.72600
O56         O  0.31927748  0.01381235  0.29383673    -0.72600
O57         O  0.39849245  0.01294474  0.29465239    -0.72600
O58         O  0.39864921  0.91601421  0.20389850    -0.72600
O59         O  0.39895854  0.01293163  0.20412328    -0.72500
O60         O  0.39805067  0.91611067  0.29450720    -0.72700
V61         V  0.32085631  0.96478985  0.24889164     1.35200
V62         V  0.39698793  0.96448845  0.24928935     1.35200
C63         C  0.35833060  0.89952365  0.30932490     0.76700
C64         C  0.35948554  0.02997559  0.18909023     0.76800
C65         C  0.35907463  0.89949104  0.18855921     0.76600
C66         C  0.35891279  0.02987558  0.30950781     0.76600
O67         O  0.45143658  0.06769935  0.04406540    -0.72500
O68         O  0.54915946  0.06767430  0.45427843    -0.72800
O69         O  0.54847221  0.06778097  0.04463679    -0.72600
O70         O  0.45208813  0.06815507  0.45367616    -0.72600
O71         O  0.45185581  0.14732351  0.45415353    -0.72600
O72         O  0.54894530  0.14694982  0.04464104    -0.72600
O73         O  0.55050841  0.14683702  0.45524651    -0.72500
O74         O  0.45042552  0.14686010  0.04377987    -0.72700
V75         V  0.50012849  0.06930841  0.99909918     1.35200
V76         V  0.50064939  0.14551013  0.49951140     1.35200
C77         C  0.43427335  0.10716955  0.05908201     0.76700
C78         C  0.56664922  0.10706511  0.43979180     0.76800
C79         C  0.56530091  0.10733054  0.05990391     0.76600
C80         C  0.43527587  0.10773609  0.43873241     0.76600
C81         C  0.32446307  0.13943909  0.37383304     0.79500
N82         N  0.32348358  0.10198363  0.34403875    -0.78800
C83         C  0.35914019  0.06797560  0.34362722     0.81900
N84         N  0.39578717  0.07042430  0.37400441    -0.78800
C85         C  0.39705569  0.10717020  0.40447226     0.82000
N86         N  0.36173223  0.14185375  0.40408433    -0.80500
C87         C  0.67646200  0.13901952  0.37430531     0.79500
N88         N  0.67740739  0.10162722  0.34445379    -0.78800
C89         C  0.64240353  0.06697305  0.34477945     0.81900
N90         N  0.60622472  0.06909000  0.37556113    -0.78800
C91         C  0.60491490  0.10604823  0.40581754     0.82000
N92         N  0.63967820  0.14115291  0.40488892    -0.80500
C93         C  0.67571015  0.13977040  0.12489564     0.79500
N94         N  0.63873574  0.14147680  0.09441040    -0.78800
C95         C  0.60335648  0.10694516  0.09428407     0.81900
N96         N  0.60432974  0.07090040  0.12522362    -0.78800
C97         C  0.64061408  0.06925764  0.15607096     0.82000
N98         N  0.67619569  0.10339558  0.15563260    -0.80500
C99         C  0.32461931  0.13932664  0.12508835     0.79500
N100        N  0.36118584  0.14119265  0.09428216    -0.78800
C101        C  0.39637694  0.10645190  0.09350905     0.81900
N102        N  0.39565255  0.07003944  0.12412725    -0.78800
C103        C  0.35973155  0.06819937  0.15522480     0.82000
N104        N  0.32434916  0.10255398  0.15540469    -0.80500
O105        O  0.95162576  0.56935494  0.20568839    -0.72500
O106        O  0.04840545  0.56850692  0.29623795    -0.72800
O107        O  0.95131941  0.56839436  0.29616354    -0.72600
O108        O  0.04861073  0.56998603  0.20584005    -0.72600
O109        O  0.04867059  0.64914670  0.20695868    -0.72600
O110        O  0.95079332  0.64755982  0.29704291    -0.72600
O111        O  0.04933795  0.64767934  0.29663369    -0.72500
O112        O  0.95011579  0.64849968  0.20734188    -0.72700
V113        V  0.99998270  0.57063940  0.25100203     1.35200
V114        V  0.99972265  0.64671807  0.25201028     1.35200
C115        C  0.93427829  0.60886921  0.19126772     0.76700
C116        C  0.06563571  0.60781197  0.31149565     0.76800
C117        C  0.93438429  0.60775018  0.31175964     0.76600
C118        C  0.06522908  0.60975769  0.19114988     0.76600
O119        O  0.04754192  0.28300565  0.29586262    -0.72500
O120        O  0.95035041  0.28374745  0.20478967    -0.72800
O121        O  0.04895809  0.28290397  0.20619295    -0.72600
O122        O  0.94885153  0.28415481  0.29439789    -0.72600
O123        O  0.95074864  0.36330759  0.29516616    -0.72600
O124        O  0.04840128  0.36207357  0.20571107    -0.72600
O125        O  0.95137509  0.36290770  0.20478201    -0.72500
O126        O  0.04785073  0.36217127  0.29604790    -0.72700
V127        V  0.99893218  0.28494605  0.25032742     1.35200
V128        V  0.99959244  0.36102636  0.25044001     1.35200
C129        C  0.06434243  0.32254564  0.31119334     0.76700
C130        C  0.93430240  0.32347989  0.18947256     0.76800
C131        C  0.06549934  0.32247478  0.19097855     0.76600
C132        C  0.93284675  0.32408997  0.30962128     0.76600
O133        O  0.10100070  0.51393349  0.04732799    -0.72500
O134        O  0.10159650  0.41749879  0.45530370    -0.72800
O135        O  0.10128799  0.41693973  0.04705952    -0.72600
O136        O  0.10239155  0.51433334  0.45590270    -0.72600
O137        O  0.18159456  0.51429711  0.45646028    -0.72600
O138        O  0.18049851  0.41681555  0.04688957    -0.72600
O139        O  0.18080552  0.41619752  0.45598978    -0.72500
O140        O  0.18021177  0.51505536  0.04660934    -0.72700
V141        V  0.10267392  0.46550212  0.00198099     1.35200
V142        V  0.17959905  0.46511804  0.50103534     1.35200
C143        C  0.14051218  0.53126683  0.06197082     0.76700
C144        C  0.14105485  0.40037394  0.44035996     0.76800
C145        C  0.14094705  0.40027726  0.06208022     0.76600
C146        C  0.14209439  0.53077214  0.44091641     0.76600
C147        C  0.17707423  0.63889513  0.37505474     0.79500
N148        N  0.17793815  0.60240212  0.40572424    -0.78800
C149        C  0.14209043  0.56848329  0.40649523     0.81900
N150        N  0.10537135  0.57055341  0.37607750    -0.78800
C151        C  0.10419090  0.60676274  0.34528457     0.82000
N152        N  0.13971338  0.64102787  0.34509975    -0.80500
C153        C  0.17466894  0.29022704  0.37656077     0.79500
N154        N  0.13747507  0.28798509  0.34621952    -0.78800
C155        C  0.10247443  0.32299390  0.34556065     0.81900
N156        N  0.10399361  0.35991188  0.37585601    -0.78800
C157        C  0.14058522  0.36219556  0.40631092     0.82000
N158        N  0.17591347  0.32784919  0.40615708    -0.80500
C159        C  0.17655330  0.29135172  0.12657144     0.79500
N160        N  0.17689630  0.32819138  0.09627470    -0.78800
C161        C  0.14100532  0.36204668  0.09594160     0.81900
N162        N  0.10458678  0.35961788  0.12644103    -0.78800
C163        C  0.10374984  0.32317346  0.15696624     0.82000
N164        N  0.13942070  0.28893022  0.15678183    -0.80500
C165        C  0.17405137  0.64246339  0.12416142     0.79500
N166        N  0.17492099  0.60491147  0.09449309    -0.78800
C167        C  0.14011396  0.57011140  0.09535204     0.81900
N168        N  0.10423694  0.57232586  0.12642019    -0.78800
C169        C  0.10286361  0.60955911  0.15640872     0.82000
N170        N  0.13743427  0.64500450  0.15495700    -0.80500
O171        O  0.81783432  0.41754457  0.45540047    -0.72500
O172        O  0.81961941  0.51499114  0.04560959    -0.72800
O173        O  0.81875930  0.51550393  0.45731968    -0.72600
O174        O  0.81884650  0.41688505  0.04445453    -0.72600
O175        O  0.89806278  0.41698122  0.04450966    -0.72600
O176        O  0.89794159  0.51384931  0.45600193    -0.72600
O177        O  0.89883248  0.51384158  0.04571071    -0.72500
O178        O  0.89705459  0.41714252  0.45469133    -0.72700
V179        V  0.82027534  0.46558443  0.50116259     1.35200
V180        V  0.89646820  0.46579010  0.99986448     1.35200
C181        C  0.85717814  0.40124115  0.43943510     0.76700
C182        C  0.85946261  0.53087873  0.06097326     0.76800
C183        C  0.85839990  0.53125660  0.44155412     0.76600
C184        C  0.85853160  0.40034094  0.05956635     0.76600
C185        C  0.82109509  0.29378012  0.37289476     0.79500
N186        N  0.85835550  0.29135483  0.34283478    -0.78800
C187        C  0.89412311  0.32543409  0.34315042     0.81900
N188        N  0.89332887  0.36167434  0.37415316    -0.78800
C189        C  0.85670505  0.36403661  0.40449577     0.82000
N190        N  0.82068582  0.33041600  0.40355629    -0.80500
C191        C  0.82474428  0.64064359  0.37724579     0.79500
N192        N  0.86128804  0.64213534  0.34647001    -0.78800
C193        C  0.89618199  0.60709803  0.34592629     0.81900
N194        N  0.89497123  0.57081231  0.37664342    -0.78800
C195        C  0.85872813  0.56923224  0.40749212     0.82000
N196        N  0.82345163  0.60371490  0.40733212    -0.80500
C197        C  0.82464666  0.64040436  0.12497821     0.79500
N198        N  0.82441602  0.60336404  0.09478829    -0.78800
C199        C  0.85983195  0.56914939  0.09497199     0.81900
N200        N  0.89583495  0.57136179  0.12603989    -0.78800
C201        C  0.89653559  0.60808612  0.15663709     0.82000
N202        N  0.86126230  0.64275262  0.15582539    -0.80500
C203        C  0.82430731  0.29107225  0.12379591     0.79500
N204        N  0.82363695  0.32781017  0.09345241    -0.78800
C205        C  0.85892174  0.36223748  0.09348614     0.81900
N206        N  0.89513903  0.36051308  0.12442034    -0.78800
C207        C  0.89627777  0.32411230  0.15501666     0.82000
N208        N  0.86117032  0.28930484  0.15439735    -0.80500
C209        C  0.29183904  0.21898878  0.09886789    -0.27100
C210        C  0.28600924  0.17756160  0.12587693    -0.15100
C211        C  0.24407585  0.17417369  0.15344507     0.35500
C212        C  0.20984348  0.21215304  0.15344893    -0.26500
C213        C  0.21554926  0.25347886  0.12627857    -0.19000
C214        C  0.25763345  0.25700424  0.09892405     0.36600
N215        N  0.26614347  0.29914958  0.07151676    -0.90000
H216        H  0.32384000  0.22236677  0.07789608     0.17700
H217        H  0.17786521  0.20876569  0.17444685     0.17700
N218        N  0.23569082  0.13216386  0.18106492    -0.89000
H219        H  0.29745471  0.29477486  0.05197249     0.35000
H220        H  0.27304202  0.32843515  0.09316810     0.40100
H221        H  0.22850789  0.10280983  0.15957917     0.39800
H222        H  0.20457329  0.13671282  0.20084321     0.34700
C223        C  0.79191647  0.21152009  0.15043691    -0.27100
C224        C  0.78561979  0.25295753  0.12351752    -0.15100
C225        C  0.74300551  0.25660972  0.09677478     0.35500
C226        C  0.70850956  0.21890130  0.09755232    -0.26500
C227        C  0.71469616  0.17758204  0.12465103    -0.15800
C228        C  0.75744902  0.17379318  0.15116971     0.36600
N229        N  0.76637469  0.13164603  0.17849083    -0.90000
H230        H  0.82444945  0.20793283  0.17075539     0.17700
H231        H  0.67598201  0.22246999  0.07722307     0.17700
N232        N  0.73420938  0.29860973  0.06922246    -0.89000
H233        H  0.79825118  0.13580524  0.19737145     0.35000
H234        H  0.77243684  0.10224500  0.15678180     0.40100
H235        H  0.72781415  0.32807830  0.09076910     0.39800
H236        H  0.70253046  0.29425629  0.05009583     0.34700
C237        C  0.79166488  0.21216810  0.34912771    -0.27100
C238        C  0.78289701  0.25532232  0.37329345    -0.15100
C239        C  0.73839135  0.25976812  0.39724973     0.35500
C240        C  0.70493899  0.22150153  0.39663961    -0.26500
C241        C  0.71394050  0.17814667  0.37283894    -0.15800
C242        C  0.75826783  0.17388741  0.34856654     0.36600
N243        N  0.77144380  0.13118733  0.32358587    -0.90000
H244        H  0.82531427  0.20749009  0.33063942     0.17700
H245        H  0.67126464  0.22615724  0.41509516     0.17700
N246        N  0.72521617  0.30256361  0.42208982    -0.89000
H247        H  0.74681639  0.12624997  0.29717269     0.35000
H248        H  0.77097993  0.10111696  0.34498337     0.40100
H249        H  0.72639795  0.33264275  0.40073181     0.39800
H250        H  0.74945577  0.30724027  0.44884625     0.34700
C251        C  0.28436543  0.21136065  0.40907502    -0.27100
C252        C  0.28538933  0.17729890  0.37373586    -0.15100
C253        C  0.24931838  0.18098602  0.33954679     0.35500
C254        C  0.21440080  0.21793730  0.34162447    -0.26500
C255        C  0.21346963  0.25209188  0.37688575    -0.15800
C256        C  0.24943476  0.24830172  0.41116320     0.36600
N257        N  0.25183759  0.28071370  0.44894527    -0.90000
H258        H  0.31104777  0.20950146  0.43586297     0.17700
H259        H  0.18770807  0.21978322  0.31484493     0.17700
N260        N  0.24679946  0.14846366  0.30185512    -0.89000
H261        H  0.21898306  0.27923289  0.46657682     0.35000
H262        H  0.25849638  0.31604787  0.43765164     0.40100
H263        H  0.24035816  0.11313509  0.31327720     0.39800
H264        H  0.27952541  0.15002667  0.28403256     0.34700
C265        C  0.29581639  0.70705306  0.10946753    -0.27100
C266        C  0.28391107  0.75476663  0.12222744    -0.15100
C267        C  0.23524040  0.76537449  0.13488559     0.35500
C268        C  0.20040028  0.72824036  0.13502210    -0.26500
C269        C  0.21245522  0.68038804  0.12266362    -0.15800
C270        C  0.26103387  0.66998243  0.10950287     0.36600
N271        N  0.27691738  0.62201559  0.09737759    -0.90000
H272        H  0.33286034  0.69812226  0.09997218     0.17700
H273        H  0.16335493  0.73709040  0.14456825     0.17700
N274        N  0.21947323  0.81352928  0.14650710    -0.89000
H275        H  0.25957654  0.61136973  0.06767272     0.35000
H276        H  0.26799113  0.59800328  0.12324875     0.40100
H277        H  0.22898280  0.83723890  0.12057301     0.39800
H278        H  0.23657951  0.82437159  0.17626044     0.34700
C279        C  0.70685895  0.71002302  0.10108704    -0.27100
C280        C  0.71492796  0.75364196  0.12468603    -0.15100
C281        C  0.75957392  0.75935760  0.14836735     0.35500
C282        C  0.79411156  0.72205442  0.14758370    -0.26500
C283        C  0.78603025  0.67843606  0.12395968    -0.15800
C284        C  0.74132409  0.67268506  0.10040318     0.36600
N285        N  0.72882286  0.62932256  0.07609501    -0.90000
H286        H  0.67303001  0.70433536  0.08303525     0.17700
H287        H  0.82793213  0.72769268  0.16566339     0.17700
N288        N  0.77184932  0.80255315  0.17303507    -0.89000
H289        H  0.73079008  0.59954096  0.09775711     0.35000
H290        H  0.75289065  0.62480906  0.04924887     0.40100
H291        H  0.74758837  0.80680266  0.19977967     0.39800
H292        H  0.76995890  0.83250449  0.15157531     0.34700
C293        C  0.29482508  0.70884523  0.39639410    -0.27100
C294        C  0.28474893  0.75349044  0.37545582    -0.15100
C295        C  0.23904025  0.76011973  0.35435451     0.35500
C296        C  0.20521522  0.72183167  0.35411883    -0.26500
C297        C  0.21530526  0.67717487  0.37504442    -0.15800
C298        C  0.26102326  0.67054922  0.39612782     0.36600
N299        N  0.27359480  0.62484816  0.41650178    -0.90000
H300        H  0.32986444  0.70318089  0.41228468     0.17700
H301        H  0.17017664  0.72748683  0.33822348     0.17700
N302        N  0.22652610  0.80579368  0.33389796    -0.89000
H303        H  0.30803160  0.62658059  0.43145286     0.35000
H304        H  0.27599991  0.59890306  0.39079408     0.40100
H305        H  0.22414783  0.83179712  0.35955550     0.39800
H306        H  0.19208944  0.80406441  0.31894297     0.34700
C307        C  0.72787975  0.73159703  0.41430955    -0.27100
C308        C  0.71370371  0.75150839  0.37294740    -0.15100
C309        C  0.73609989  0.73420695  0.33308009     0.35500
C310        C  0.77188598  0.69813977  0.33563876    -0.26500
C311        C  0.78614760  0.67831488  0.37700771    -0.15800
C312        C  0.76360675  0.69547219  0.41686582     0.36600
N313        N  0.77704456  0.67829449  0.46055718    -0.90000
H314        H  0.71141756  0.74460936  0.44518896     0.17700
H315        H  0.78833216  0.68510677  0.30475950     0.17700
N316        N  0.72242534  0.75116349  0.28938097    -0.89000
H317        H  0.81462613  0.68245442  0.46470593     0.35000
H318        H  0.76783593  0.64153472  0.46317100     0.40100
H319        H  0.73158105  0.78791674  0.28658507     0.39800
H320        H  0.68482340  0.74695980  0.28542729     0.34700
O321        O  0.54878936  0.78153027  0.95319447    -0.72500
O322        O  0.45184274  0.78093960  0.54323748    -0.72800
O323        O  0.45044441  0.78194965  0.95341074    -0.72600
O324        O  0.55038210  0.78160280  0.54266374    -0.72600
O325        O  0.54890064  0.86074804  0.54439142    -0.72600
O326        O  0.45133512  0.86113031  0.95317679    -0.72600
O327        O  0.45192116  0.86009604  0.54458352    -0.72500
O328        O  0.54810973  0.86069870  0.95254888    -0.72700
V329        V  0.49984674  0.78347979  0.99819557     1.35200
V330        V  0.50039329  0.85957073  0.49924913     1.35200
C331        C  0.56486265  0.82103919  0.93751526     0.76700
C332        C  0.43536782  0.82027225  0.55923299     0.76800
C333        C  0.43435104  0.82166555  0.93805994     0.76600
C334        C  0.56627712  0.82121283  0.55872761     0.76600
C335        C  0.67382694  0.78786110  0.87140772     0.79500
N336        N  0.63714217  0.78601831  0.90200848    -0.78800
C337        C  0.60251937  0.82126414  0.90293484     0.81900
N338        N  0.60415266  0.85810518  0.87283346    -0.78800
C339        C  0.64055908  0.86004995  0.84221844     0.82000
N340        N  0.67558052  0.82534421  0.84194973    -0.80500
C341        C  0.32375991  0.79081200  0.87328363     0.79500
N342        N  0.32308822  0.82772457  0.84306517    -0.78800
C343        C  0.35923256  0.86135680  0.84253411     0.81900
N344        N  0.39576510  0.85885962  0.87305330    -0.78800
C345        C  0.39648166  0.82251417  0.90370847     0.82000
N346        N  0.36079903  0.78841844  0.90355194    -0.80500
C347        C  0.67598014  0.78990905  0.62506678     0.79500
N348        N  0.63936286  0.78740948  0.59421466    -0.78800
C349        C  0.60403414  0.82202169  0.59332824     0.81900
N350        N  0.60467971  0.85881411  0.62383089    -0.78800
C351        C  0.64065918  0.86119162  0.65488624     0.82000
N352        N  0.67615361  0.82704259  0.65517523    -0.80500
C353        C  0.32719968  0.78686917  0.62682000     0.79500
N354        N  0.32620522  0.82445678  0.65643739    -0.78800
C355        C  0.36070311  0.85954084  0.65535186     0.81900
N356        N  0.39641564  0.85757315  0.62409899    -0.78800
C357        C  0.39790690  0.82029753  0.59414737     0.82000
N358        N  0.36363466  0.78457064  0.59583219    -0.80500
O359        O  0.60185281  0.01349021  0.70490744    -0.72500
O360        O  0.60175840  0.91597846  0.79421273    -0.72800
O361        O  0.60260192  0.01285173  0.79542068    -0.72600
O362        O  0.60137799  0.91661021  0.70382481    -0.72600
O363        O  0.68059501  0.91560804  0.70416523    -0.72600
O364        O  0.68181148  0.01293157  0.79466563    -0.72600
O365        O  0.68096638  0.91472751  0.79358638    -0.72500
O366        O  0.68107180  0.01372716  0.70507282    -0.72700
V367        V  0.60346165  0.96475016  0.74959843     1.35200
V368        V  0.67959722  0.96427377  0.74937120     1.35200
C369        C  0.64137838  0.03020105  0.68991658     0.76700
C370        C  0.64121993  0.89860927  0.80881477     0.76800
C371        C  0.64239770  0.02930896  0.81042625     0.76600
C372        C  0.64084268  0.89957772  0.68875369     0.76600
O373        O  0.31973428  0.91595277  0.79322501    -0.72500
O374        O  0.31958117  0.01284441  0.70300555    -0.72800
O375        O  0.32024145  0.91463420  0.70382425    -0.72600
O376        O  0.31958891  0.01419341  0.79253560    -0.72600
O377        O  0.39879150  0.01334377  0.79357975    -0.72600
O378        O  0.39944898  0.91606750  0.70326459    -0.72600
O379        O  0.39879113  0.01306391  0.70307444    -0.72500
O380        O  0.39893942  0.91630982  0.79368091    -0.72700
V381        V  0.32131616  0.96443032  0.74814122     1.35200
V382        V  0.39744443  0.96471080  0.74839128     1.35200
C383        C  0.35930322  0.89954963  0.80859200     0.76700
C384        C  0.35909977  0.02945689  0.68784052     0.76800
C385        C  0.36005189  0.89851115  0.68860668     0.76600
C386        C  0.35919306  0.03043897  0.80820313     0.76600
O387        O  0.45181887  0.06784108  0.54399344    -0.72500
O388        O  0.54891509  0.06766701  0.95422090    -0.72800
O389        O  0.54884307  0.06767575  0.54466127    -0.72600
O390        O  0.45175305  0.06779657  0.95354045    -0.72600
O391        O  0.45128515  0.14695891  0.95405206    -0.72600
O392        O  0.54938778  0.14684274  0.54490564    -0.72600
O393        O  0.54994716  0.14682784  0.95502690    -0.72500
O394        O  0.45078512  0.14701257  0.54377795    -0.72700
V395        V  0.50048211  0.06942408  0.49914642     1.35200
V396        V  0.50013346  0.14538808  0.99935460     1.35200
C397        C  0.43448693  0.10727830  0.55884727     0.76700
C398        C  0.56633445  0.10710512  0.93969868     0.76800
C399        C  0.56569049  0.10714996  0.56007911     0.76600
C400        C  0.43488750  0.10733360  0.93853499     0.76600
C401        C  0.32446330  0.13953825  0.87340292     0.79500
N402        N  0.32392383  0.10282646  0.84276801    -0.78800
C403        C  0.35945285  0.06862614  0.84235251     0.81900
N404        N  0.39574997  0.07052257  0.87318233    -0.78800
C405        C  0.39679526  0.10685886  0.90410608     0.82000
N406        N  0.36147082  0.14150988  0.90390578    -0.80500
C407        C  0.67726872  0.13849384  0.87547760     0.79500
N408        N  0.67818472  0.10143253  0.84518695    -0.78800
C409        C  0.64264267  0.06721770  0.84484901     0.81900
N410        N  0.60618020  0.06951006  0.87536432    -0.78800
C411        C  0.60488112  0.10621359  0.90589858     0.82000
N412        N  0.64005612  0.14097192  0.90559591    -0.80500
C413        C  0.67524571  0.13989730  0.62623694     0.79500
N414        N  0.63851820  0.14164021  0.59549694    -0.78800
C415        C  0.60364771  0.10659044  0.59458986     0.81900
N416        N  0.60488390  0.07004197  0.62503334    -0.78800
C417        C  0.64096705  0.06838027  0.65609512     0.82000
N418        N  0.67601642  0.10303148  0.65643807    -0.80500
C419        C  0.32285238  0.13761079  0.62253845     0.79500
N420        N  0.36012815  0.14017996  0.59252215    -0.78800
C421        C  0.39611021  0.10629128  0.59269565     0.81900
N422        N  0.39545922  0.07002693  0.62340869    -0.78800
C423        C  0.35889645  0.06747269  0.65376571     0.82000
N424        N  0.32266864  0.10099192  0.65307104    -0.80500
O425        O  0.95196404  0.56870367  0.70685974    -0.72500
O426        O  0.04885219  0.56899008  0.79729410    -0.72800
O427        O  0.95207984  0.56960921  0.79726536    -0.72600
O428        O  0.04902514  0.56832068  0.70682686    -0.72600
O429        O  0.05026370  0.64748204  0.70707317    -0.72600
O430        O  0.95158234  0.64877854  0.79644071    -0.72600
O431        O  0.04985527  0.64816692  0.79678062    -0.72500
O432        O  0.95161193  0.64788047  0.70673648    -0.72700
V433        V  0.00048778  0.57049130  0.75202022     1.35200
V434        V  0.00082725  0.64658194  0.75172640     1.35200
C435        C  0.93509822  0.60808823  0.69165960     0.76700
C436        C  0.06573692  0.60851159  0.81241263     0.76800
C437        C  0.93532922  0.60934064  0.81211820     0.76600
C438        C  0.06641465  0.60761281  0.69188747     0.76600
O439        O  0.04873628  0.28308706  0.79585601    -0.72500
O440        O  0.95100759  0.28325713  0.70529385    -0.72800
O441        O  0.04957405  0.28301894  0.70606225    -0.72600
O442        O  0.95006124  0.28352350  0.79487897    -0.72600
O443        O  0.95118473  0.36268286  0.79542076    -0.72600
O444        O  0.04898199  0.36217959  0.70583198    -0.72600
O445        O  0.95191866  0.36241934  0.70504214    -0.72500
O446        O  0.04833947  0.36224713  0.79639112    -0.72700
V447        V  0.99988307  0.28472888  0.75053698     1.35200
V448        V  0.00013173  0.36080503  0.75068558     1.35200
C449        C  0.06509478  0.32269485  0.81146071     0.76700
C450        C  0.93480912  0.32291187  0.68995945     0.76800
C451        C  0.06593750  0.32263428  0.69076788     0.76600
C452        C  0.93365452  0.32332647  0.81001945     0.76600
O453        O  0.10220342  0.51393809  0.54652726    -0.72500
O454        O  0.10104913  0.41706539  0.95658051    -0.72800
O455        O  0.10147492  0.41703115  0.54584106    -0.72600
O456        O  0.10114551  0.51412461  0.95695300    -0.72600
O457        O  0.18035311  0.51441417  0.95721867    -0.72600
O458        O  0.18067319  0.41587902  0.54552640    -0.72600
O459        O  0.18025330  0.41609207  0.95738006    -0.72500
O460        O  0.18141941  0.51395519  0.54614468    -0.72700
V461        V  0.10347180  0.46571258  0.50089283     1.35200
V462        V  0.17880383  0.46557263  0.00202605     1.35200
C463        C  0.14190219  0.53027939  0.56176986     0.76700
C464        C  0.14057376  0.39991526  0.94182570     0.76800
C465        C  0.14091852  0.39982062  0.56077405     0.76600
C466        C  0.14074113  0.53097817  0.94207104     0.76600
C467        C  0.17478765  0.64108496  0.87862191     0.79500
N468        N  0.17595731  0.60389865  0.90855983    -0.78800
C469        C  0.14058670  0.56941907  0.90837897     0.81900
N470        N  0.10440105  0.57136602  0.87746271    -0.78800
C471        C  0.10327269  0.60794931  0.84707620     0.82000
N472        N  0.13811813  0.64286415  0.84795394    -0.80500
C473        C  0.17492934  0.29022778  0.87735402     0.79500
N474        N  0.13809458  0.28828559  0.84667015    -0.78800
C475        C  0.10298636  0.32315486  0.84609388     0.81900
N476        N  0.10406827  0.35969222  0.87683158    -0.78800
C477        C  0.14021740  0.36157840  0.90781302     0.82000
N478        N  0.17552667  0.32715259  0.90775870    -0.80500
C479        C  0.17513710  0.28986169  0.62427925     0.79500
N480        N  0.17562414  0.32678309  0.59410390    -0.78800
C481        C  0.14055384  0.36145679  0.59454934     0.81900
N482        N  0.10473208  0.35975639  0.62576497    -0.78800
C483        C  0.10378765  0.32319738  0.65624421     0.82000
N484        N  0.13866888  0.28813983  0.65520027    -0.80500
C485        C  0.17860143  0.63710389  0.62886562     0.79500
N486        N  0.17868103  0.60085126  0.59783765    -0.78800
C487        C  0.14210657  0.56784487  0.59644481     0.81900
N488        N  0.10537965  0.57046681  0.62672041    -0.78800
C489        C  0.10488323  0.60651041  0.65798047     0.82000
N490        N  0.14113657  0.64016359  0.65865965    -0.80500
O491        O  0.81788942  0.41791185  0.95482323    -0.72500
O492        O  0.81959950  0.51369961  0.54685057    -0.72800
O493        O  0.81895693  0.51613162  0.95614512    -0.72600
O494        O  0.81883053  0.41566573  0.54501749    -0.72600
O495        O  0.89804341  0.41605331  0.54523639    -0.72600
O496        O  0.89815437  0.51462761  0.95529126    -0.72600
O497        O  0.89882170  0.51291355  0.54654939    -0.72500
O498        O  0.89709472  0.41775989  0.95398338    -0.72700
V499        V  0.82033868  0.46645391  0.00025581     1.35200
V500        V  0.89640836  0.46498352  0.50064364     1.35200
C501        C  0.85723904  0.40145115  0.93897990     0.76700
C502        C  0.85946292  0.52965630  0.56208868     0.76800
C503        C  0.85869782  0.53213148  0.94079804     0.76600
C504        C  0.85852142  0.39921141  0.56017368     0.76600
C505        C  0.82220105  0.29242989  0.87370338     0.79500
N506        N  0.85959637  0.28978932  0.84378688    -0.78800
C507        C  0.89491146  0.32440245  0.84364250     0.81900
N508        N  0.89355723  0.36113733  0.87414306    -0.78800
C509        C  0.85691285  0.36360478  0.90447233     0.82000
N510        N  0.82123916  0.32951813  0.90397600    -0.80500
C511        C  0.82618041  0.64274230  0.87785084     0.79500
N512        N  0.86292843  0.64449221  0.84731168    -0.78800
C513        C  0.89754282  0.60923621  0.84655586     0.81900
N514        N  0.89584144  0.57249298  0.87675134    -0.78800
C515        C  0.85938312  0.57063164  0.90730779     0.82000
N516        N  0.82435977  0.60534097  0.90741144    -0.80500
C517        C  0.82456400  0.63885170  0.62637923     0.79500
N518        N  0.82423007  0.60176339  0.59626009    -0.78800
C519        C  0.85985390  0.56777300  0.59617007     0.81900
N520        N  0.89619075  0.57023446  0.62688089    -0.78800
C521        C  0.89701997  0.60702668  0.65738319     0.82000
N522        N  0.86152729  0.64149146  0.65685719    -0.80500
C523        C  0.82358593  0.29113079  0.62593026     0.79500
N524        N  0.82305329  0.32739450  0.59507253    -0.78800
C525        C  0.85891244  0.36123818  0.59424926     0.81900
N526        N  0.89548295  0.35938695  0.62480528    -0.78800
C527        C  0.89650457  0.32341416  0.65581478     0.82000
N528        N  0.86085869  0.28916704  0.65608089    -0.80500
C529        C  0.29030160  0.21743607  0.59660982    -0.27100
C530        C  0.28374348  0.17532703  0.62255762    -0.15100
C531        C  0.24078716  0.17093247  0.64858033     0.35500
C532        C  0.20665136  0.20903280  0.64882751    -0.26500
C533        C  0.21345696  0.25135953  0.62322105    -0.19000
C534        C  0.25615503  0.25547980  0.59677453     0.36600
N535        N  0.26545452  0.29836523  0.57058321    -0.90000
H536        H  0.32294718  0.22143981  0.57660034     0.17700
H537        H  0.17397900  0.20506559  0.66880929     0.17700
N538        N  0.23135606  0.12780684  0.67438558    -0.89000
H539        H  0.29717792  0.29440867  0.55153071     0.35000
H540        H  0.27195976  0.32700413  0.59305389     0.40100
H541        H  0.22558503  0.09924406  0.65165857     0.39800
H542        H  0.19920658  0.13137311  0.69288299     0.34700
C543        C  0.79212003  0.21065853  0.65104219    -0.27100
C544        C  0.78450741  0.25351092  0.62641023    -0.15100
C545        C  0.74029539  0.25900529  0.60234693     0.35500
C546        C  0.70586889  0.22122770  0.60264107    -0.26500
C547        C  0.71369119  0.17816192  0.62690159    -0.15800
C548        C  0.75763805  0.17294101  0.65146561     0.36600
N549        N  0.76782300  0.12926627  0.67626680    -0.90000
H550        H  0.82578569  0.20587920  0.66949726     0.17700
H551        H  0.67219345  0.22600755  0.58420005     0.17700
N552        N  0.72987729  0.30298358  0.57809901    -0.89000
H553        H  0.80065020  0.13232571  0.69388991     0.35000
H554        H  0.77262861  0.10111626  0.65293506     0.40100
H555        H  0.72578795  0.33093840  0.60174731     0.39800
H556        H  0.69665456  0.30030943  0.56106525     0.34700
C557        C  0.79706411  0.20686342  0.85978832    -0.27100
C558        C  0.78433384  0.25381533  0.87446962    -0.15100
C559        C  0.73598532  0.26228703  0.88931835     0.35500
C560        C  0.70231808  0.22411910  0.88923768    -0.26500
C561        C  0.71506575  0.17716199  0.87458958    -0.15800
C562        C  0.76339027  0.16870908  0.85967240     0.36600
N563        N  0.78013153  0.12172186  0.84543125    -0.90000
H564        H  0.83389750  0.19936866  0.84869951     0.17700
H565        H  0.66548146  0.23159844  0.90032749     0.17700
N566        N  0.71921596  0.30930336  0.90344368    -0.89000
H567        H  0.76181972  0.11166388  0.81605194     0.35000
H568        H  0.77294116  0.09651455  0.87078605     0.40100
H569        H  0.72645786  0.33444874  0.87805257     0.39800
H570        H  0.73747573  0.31943095  0.93283299     0.34700
C571        C  0.29403755  0.22092715  0.89743082    -0.27100
C572        C  0.28553523  0.17744933  0.87365151    -0.15100
C573        C  0.23998130  0.17156689  0.85155798     0.35500
C574        C  0.20513327  0.20859991  0.85379913    -0.26500
C575        C  0.21369026  0.25214075  0.87746078    -0.15800
C576        C  0.25915430  0.25792260  0.89974526     0.36600
N577        N  0.27190199  0.30093384  0.92447493    -0.90000
H578        H  0.32847351  0.22668608  0.91445501     0.17700
H579        H  0.17068667  0.20283150  0.83679625     0.17700
N580        N  0.22708974  0.12838589  0.82714818    -0.89000
H581        H  0.24847318  0.30466987  0.95190035     0.35000
H582        H  0.26901735  0.33111611  0.90336558     0.40100
H583        H  0.23024080  0.09834159  0.84839652     0.39800
H584        H  0.25026046  0.12451778  0.79955589     0.34700
C585        C  0.30118948  0.70090576  0.61634390    -0.27100
C586        C  0.28897054  0.74879578  0.62845567    -0.15100
C587        C  0.24033978  0.75915355  0.64146527     0.35500
C588        C  0.20564041  0.72202857  0.64152403    -0.26500
C589        C  0.21767318  0.67429612  0.62894903    -0.15800
C590        C  0.26641111  0.66369675  0.61653037     0.36600
N591        N  0.28227708  0.61549216  0.60520998    -0.90000
H592        H  0.33828999  0.69210791  0.60693981     0.17700
H593        H  0.16854237  0.73094409  0.65085201     0.17700
N594        N  0.22430867  0.80713564  0.65337387    -0.89000
H595        H  0.26527120  0.60444547  0.57546923     0.35000
H596        H  0.27266442  0.59193973  0.63123061     0.40100
H597        H  0.23325598  0.83106173  0.62744308     0.39800
H598        H  0.24151954  0.81794664  0.68309490     0.34700
C599        C  0.70622201  0.70791440  0.60327549    -0.27100
C600        C  0.71461961  0.75189554  0.62620398    -0.15100
C601        C  0.75962523  0.75799732  0.64919581     0.35500
C602        C  0.79415948  0.72068652  0.64850791    -0.26500
C603        C  0.78579883  0.67674109  0.62550981    -0.15800
C604        C  0.74076699  0.67061902  0.60255354     0.36600
N605        N  0.72807825  0.62696876  0.57876669    -0.90000
H606        H  0.67212478  0.70197591  0.58572725     0.17700
H607        H  0.82825770  0.72663042  0.66605196     0.17700
N608        N  0.77233278  0.80168795  0.67290231    -0.89000
H609        H  0.73054727  0.59740031  0.60063722     0.35000
H610        H  0.75173219  0.62231417  0.55162528     0.40100
H611        H  0.74859472  0.80646401  0.69996756     0.39800
H612        H  0.76994548  0.83118875  0.65095817     0.34700
C613        C  0.27640598  0.72787195  0.91406035    -0.27100
C614        C  0.28448811  0.75362463  0.87404041    -0.15100
C615        C  0.25611701  0.74217537  0.83569991     0.35500
C616        C  0.22125575  0.70495621  0.83830843    -0.26500
C617        C  0.21337289  0.67899143  0.87824285    -0.15800
C618        C  0.24143530  0.69072856  0.91669809     0.36600
N619        N  0.23383099  0.66601799  0.95862292    -0.90000
H620        H  0.29759752  0.73669712  0.94372164     0.17700
H621        H  0.20010024  0.69613710  0.80862522     0.17700
N622        N  0.26334418  0.76720660  0.79387693    -0.89000
H623        H  0.25350953  0.68282773  0.98448868     0.35000
H624        H  0.24855109  0.63109613  0.95534231     0.40100
H625        H  0.24885450  0.80218163  0.79758016     0.39800
H626        H  0.24327367  0.75074529  0.76808055     0.34700
C627        C  0.72668781  0.73114690  0.91357476    -0.27100
C628        C  0.71283925  0.75077964  0.87202350    -0.15100
C629        C  0.73669609  0.73455522  0.83251505     0.35500
C630        C  0.77345639  0.69959845  0.83561504    -0.26500
C631        C  0.78725534  0.67991953  0.87717200    -0.15800
C632        C  0.76345564  0.69621935  0.91667798     0.36600
N633        N  0.77663839  0.67943381  0.96056326    -0.90000
H634        H  0.70923279  0.74354182  0.94420236     0.17700
H635        H  0.79093386  0.68721467  0.80499464     0.17700
N636        N  0.72358962  0.75145534  0.78864587    -0.89000
H637        H  0.81401183  0.68466577  0.96524315     0.35000
H638        H  0.76843837  0.64243275  0.96308231     0.40100
H639        H  0.73175146  0.78847609  0.78624149     0.39800
H640        H  0.68622948  0.74621018  0.78389251     0.34700
loop_ 
_geom_bond_atom_site_label_1 
_geom_bond_atom_site_label_2 
_geom_bond_distance 
_geom_bond_site_symmetry_2 
_ccdc_geom_bond_type 
O1            V9   1.899       .  S
O1           C11   1.263       .  A
O2          V329   1.901   1_554  S
O2           C12   1.263       .  A
O3            V9   1.902       .  S
O3           C13   1.264       .  A
O4          V329   1.903   1_554  S
O4           C14   1.264       .  A
O5           V10   1.891   1_554  S
O5           C14   1.262       .  A
O6          V330   1.892       .  S
O6           C13   1.261       .  A
O7           V10   1.896   1_554  S
O7           C12   1.263       .  A
O8          V330   1.898       .  S
O8           C11   1.264       .  A
V9          O322   1.901       .  S
V9          O324   1.903       .  S
V9          V330   2.090       .  T
V10         O326   1.890       .  S
V10         O328   1.895       .  S
V10         V329   2.090       .  T
C11          C17   1.462       .  S
C12          C37   1.462       .  S
C13          C25   1.459       .  S
C14          C29   1.460       .  S
C15         C308   1.481       .  S
C15          N16   1.360       .  A
C15          N20   1.357       .  A
N16          C17   1.358       .  A
C17          N18   1.356       .  A
N18          C19   1.356       .  A
C19          C50   1.458       .  S
C19          N20   1.355       .  A
C21         C294   1.486       .  S
C21          N22   1.359       .  A
C21          N26   1.360       .  A
N22          C23   1.356       .  A
C23          C63   1.460       .  S
C23          N24   1.356       .  A
N24          C25   1.356       .  A
C25          N26   1.356       .  A
C27         C280   1.489       .  S
C27          N28   1.362       .  A
C27          N32   1.354       .  A
N28          C29   1.358       .  A
C29          N30   1.356       .  A
N30          C31   1.354       .  A
C31          C52   1.455       .  S
C31          N32   1.352       .  A
C33         C266   1.482       .  S
C33          N34   1.355       .  A
C33          N38   1.362       .  A
N34          C35   1.353       .  A
C35          C65   1.456       .  S
C35          N36   1.355       .  A
N36          C37   1.356       .  A
C37          N38   1.359       .  A
O39          V47   1.894   1_545  S
O39          C49   1.262       .  A
O40          V47   1.893       .  S
O40          C50   1.262       .  A
O41          V47   1.893   1_545  S
O41          C51   1.262       .  A
O42          V47   1.894       .  S
O42          C52   1.262       .  A
O43          V48   1.893       .  S
O43          C52   1.262       .  A
O44          V48   1.894   1_545  S
O44          C51   1.262       .  A
O45          V48   1.898       .  S
O45          C50   1.263       .  A
O46          V48   1.897   1_545  S
O46          C49   1.263       .  A
V47          V48   2.091       .  T
C49          C97   1.458       .  S
C51          C89   1.454       .  S
O53          V61   1.897       .  S
O53          C63   1.263       .  A
O54          V61   1.896   1_545  S
O54          C64   1.263       .  A
O55          V61   1.894       .  S
O55          C65   1.263       .  A
O56          V61   1.895   1_545  S
O56          C66   1.263       .  A
O57          V62   1.893   1_545  S
O57          C66   1.262       .  A
O58          V62   1.894       .  S
O58          C65   1.262       .  A
O59          V62   1.896   1_545  S
O59          C64   1.263       .  A
O60          V62   1.896       .  S
O60          C63   1.263       .  A
V61          V62   2.091       .  T
C64         C103   1.459       .  S
C66          C83   1.455       .  S
O67          V75   1.894   1_554  S
O67          C77   1.262       .  A
O68         V395   1.891       .  S
O68          C78   1.262       .  A
O69          V75   1.897   1_554  S
O69          C79   1.263       .  A
O70         V395   1.896       .  S
O70          C80   1.264       .  A
O71          V76   1.902       .  S
O71          C80   1.263       .  A
O72         V396   1.900   1_554  S
O72          C79   1.263       .  A
O73          V76   1.902       .  S
O73          C78   1.264       .  A
O74         V396   1.902   1_554  S
O74          C77   1.264       .  A
V75         O388   1.894       .  S
V75         O390   1.897       .  S
V75         V396   2.090       .  T
V76         O392   1.901       .  S
V76         O394   1.902       .  S
V76         V395   2.090       .  T
C77         C101   1.462       .  S
C78          C91   1.460       .  S
C79          C95   1.462       .  S
C80          C85   1.462       .  S
C81         C252   1.494       .  S
C81          N82   1.356       .  A
C81          N86   1.364       .  A
N82          C83   1.353       .  A
C83          N84   1.354       .  A
N84          C85   1.355       .  A
C85          N86   1.360       .  A
C87         C241   1.489       .  S
C87          N88   1.356       .  A
C87          N92   1.362       .  A
N88          C89   1.353       .  A
C89          N90   1.354       .  A
N90          C91   1.355       .  A
C91          N92   1.358       .  A
C93         C227   1.492       .  S
C93          N94   1.362       .  A
C93          N98   1.358       .  A
N94          C95   1.358       .  A
C95          N96   1.355       .  A
N96          C97   1.355       .  A
C97          N98   1.355       .  A
C99         C210   1.492       .  S
C99         N100   1.362       .  A
C99         N104   1.357       .  A
N100        C101   1.358       .  A
C101        N102   1.356       .  A
N102        C103   1.355       .  A
C103        N104   1.354       .  A
O105        V113   1.892       .  S
O105        C115   1.262       .  A
O106        V113   1.892   1_455  S
O106        C116   1.262       .  A
O107        V113   1.898       .  S
O107        C117   1.264       .  A
O108        V113   1.896   1_455  S
O108        C118   1.264       .  A
O109        V114   1.901   1_455  S
O109        C118   1.263       .  A
O110        V114   1.899       .  S
O110        C117   1.263       .  A
O111        V114   1.902   1_455  S
O111        C116   1.264       .  A
O112        V114   1.903       .  S
O112        C115   1.264       .  A
V113        V114   2.090       .  T
C115        C201   1.461       .  S
C116        C151   1.460       .  S
C117        C193   1.462       .  S
C118        C169   1.463       .  S
O119        V127   1.902   1_455  S
O119        C129   1.263       .  A
O120        V127   1.901       .  S
O120        C130   1.264       .  A
O121        V127   1.903   1_455  S
O121        C131   1.264       .  A
O122        V127   1.902       .  S
O122        C132   1.264       .  A
O123        V128   1.892       .  S
O123        C132   1.262       .  A
O124        V128   1.891   1_455  S
O124        C131   1.262       .  A
O125        V128   1.897       .  S
O125        C130   1.263       .  A
O126        V128   1.896   1_455  S
O126        C129   1.264       .  A
V127        V128   2.090       .  T
C129        C155   1.463       .  S
C130        C207   1.463       .  S
C131        C163   1.460       .  S
C132        C187   1.460       .  S
O133        V141   1.892       .  S
O133        C143   1.261       .  A
O134        V461   1.893       .  S
O134        C144   1.262       .  A
O135        V141   1.897       .  S
O135        C145   1.263       .  A
O136        V461   1.896       .  S
O136        C146   1.263       .  A
O137        V142   1.898       .  S
O137        C146   1.263       .  A
O138        V462   1.896       .  S
O138        C145   1.263       .  A
O139        V142   1.895       .  S
O139        C144   1.263       .  A
O140        V462   1.896       .  S
O140        C143   1.263       .  A
V141        O454   1.893   1_554  S
V141        O456   1.897   1_554  S
V141        V462   2.091       .  T
V142        O458   1.897       .  S
V142        O460   1.895       .  S
V142        V461   2.091       .  T
C143        C167   1.455       .  S
C144        C157   1.455       .  S
C145        C161   1.459       .  S
C146        C149   1.460       .  S
C147        C297   1.486       .  S
C147        N148   1.359       .  A
C147        N152   1.360       .  A
N148        C149   1.356       .  A
C149        N150   1.356       .  A
N150        C151   1.356       .  A
C151        N152   1.356       .  A
C153        C255   1.494       .  S
C153        N154   1.364       .  A
C153        N158   1.356       .  A
N154        C155   1.360       .  A
C155        N156   1.355       .  A
N156        C157   1.354       .  A
C157        N158   1.353       .  A
C159        C213   1.493       .  S
C159        N160   1.358       .  A
C159        N164   1.362       .  A
N160        C161   1.355       .  A
C161        N162   1.354       .  A
N162        C163   1.355       .  A
C163        N164   1.358       .  A
C165        C269   1.483       .  S
C165        N166   1.355       .  A
C165        N170   1.363       .  A
N166        C167   1.352       .  A
C167        N168   1.353       .  A
N168        C169   1.355       .  A
C169        N170   1.361       .  A
O171        V179   1.894       .  S
O171        C181   1.262       .  A
O172        V499   1.894       .  S
O172        C182   1.263       .  A
O173        V179   1.897       .  S
O173        C183   1.263       .  A
O174        V499   1.898       .  S
O174        C184   1.264       .  A
O175        V180   1.892   1_554  S
O175        C184   1.262       .  A
O176        V500   1.893       .  S
O176        C183   1.262       .  A
O177        V180   1.896   1_554  S
O177        C182   1.262       .  A
O178        V500   1.893       .  S
O178        C181   1.262       .  A
V179        O492   1.893       .  S
V179        O494   1.898       .  S
V179        V500   2.091       .  T
V180        O496   1.891       .  S
V180        O498   1.895       .  S
V180        V499   2.091   1_556  T
C181        C189   1.455       .  S
C182        C199   1.456       .  S
C183        C195   1.458       .  S
C184        C205   1.457       .  S
C185        C238   1.489       .  S
C185        N186   1.362       .  A
C185        N190   1.356       .  A
N186        C187   1.357       .  A
C187        N188   1.355       .  A
N188        C189   1.354       .  A
C189        N190   1.354       .  A
C191        C311   1.481       .  S
C191        N192   1.360       .  A
C191        N196   1.357       .  A
N192        C193   1.358       .  A
C193        N194   1.356       .  A
N194        C195   1.356       .  A
C195        N196   1.355       .  A
C197        C283   1.489       .  S
C197        N198   1.355       .  A
C197        N202   1.362       .  A
N198        C199   1.352       .  A
C199        N200   1.354       .  A
N200        C201   1.356       .  A
C201        N202   1.358       .  A
C203        C224   1.492       .  S
C203        N204   1.357       .  A
C203        N208   1.362       .  A
N204        C205   1.354       .  A
C205        N206   1.355       .  A
N206        C207   1.356       .  A
C207        N208   1.358       .  A
C209        C210   1.405       .  A
C209        C214   1.404       .  A
C209        H216   1.083       .  S
C210        C211   1.418       .  A
C211        C212   1.404       .  A
C211        N218   1.439       .  S
C212        C213   1.406       .  A
C212        H217   1.083       .  S
C213        C214   1.418       .  A
C214        N215   1.438       .  S
N215        H219   1.045       .  S
N215        H220   1.046       .  S
N218        H221   1.046       .  S
N218        H222   1.046       .  S
C223        C224   1.405       .  A
C223        C228   1.404       .  A
C223        H230   1.083       .  S
C224        C225   1.418       .  A
C225        C226   1.404       .  A
C225        N232   1.439       .  S
C226        C227   1.405       .  A
C226        H231   1.083       .  S
C227        C228   1.418       .  A
C228        N229   1.438       .  S
N229        H233   1.046       .  S
N229        H234   1.046       .  S
N232        H235   1.046       .  S
N232        H236   1.046       .  S
C237        C238   1.405       .  A
C237        C242   1.396       .  A
C237        H244   1.084       .  S
C238        C239   1.421       .  A
C239        C240   1.396       .  A
C239        N246   1.433       .  S
C240        C241   1.405       .  A
C240        H245   1.084       .  S
C241        C242   1.421       .  A
C242        N243   1.433       .  S
N243        H247   1.045       .  S
N243        H248   1.045       .  S
N246        H249   1.045       .  S
N246        H250   1.045       .  S
C251        C252   1.405       .  A
C251        C256   1.398       .  A
C251        H258   1.084       .  S
C252        C253   1.423       .  A
C253        C254   1.397       .  A
C253        N260   1.433       .  S
C254        C255   1.405       .  A
C254        H259   1.084       .  S
C255        C256   1.423       .  A
C256        N257   1.433       .  S
N257        H261   1.045       .  S
N257        H262   1.045       .  S
N260        H263   1.045       .  S
N260        H264   1.045       .  S
C265        C266   1.402       .  A
C265        C270   1.396       .  A
C265        H272   1.084       .  S
C266        C267   1.419       .  A
C267        C268   1.399       .  A
C267        N274   1.433       .  S
C268        C269   1.403       .  A
C268        H273   1.084       .  S
C269        C270   1.420       .  A
C270        N271   1.433       .  S
N271        H275   1.044       .  S
N271        H276   1.046       .  S
N274        H277   1.046       .  S
N274        H278   1.044       .  S
C279        C280   1.404       .  A
C279        C284   1.396       .  A
C279        H286   1.084       .  S
C280        C281   1.422       .  A
C281        C282   1.396       .  A
C281        N288   1.433       .  S
C282        C283   1.404       .  A
C282        H287   1.084       .  S
C283        C284   1.422       .  A
C284        N285   1.433       .  S
N285        H289   1.045       .  S
N285        H290   1.045       .  S
N288        H291   1.045       .  S
N288        H292   1.045       .  S
C293        C294   1.405       .  A
C293        C298   1.403       .  A
C293        H300   1.083       .  S
C294        C295   1.415       .  A
C295        C296   1.403       .  A
C295        N302   1.438       .  S
C296        C297   1.405       .  A
C296        H301   1.083       .  S
C297        C298   1.415       .  A
C298        N299   1.438       .  S
N299        H303   1.046       .  S
N299        H304   1.046       .  S
N302        H305   1.046       .  S
N302        H306   1.046       .  S
C307        C308   1.404       .  A
C307        C312   1.398       .  A
C307        H314   1.084       .  S
C308        C309   1.418       .  A
C309        C310   1.398       .  A
C309        N316   1.433       .  S
C310        C311   1.404       .  A
C310        H315   1.084       .  S
C311        C312   1.418       .  A
C312        N313   1.433       .  S
N313        H317   1.046       .  S
N313        H318   1.044       .  S
N316        H319   1.044       .  S
N316        H320   1.046       .  S
O321        V329   1.899       .  S
O321        C331   1.263       .  A
O322        C332   1.263       .  A
O323        V329   1.901       .  S
O323        C333   1.264       .  A
O324        C334   1.264       .  A
O325        V330   1.891       .  S
O325        C334   1.262       .  A
O326        C333   1.261       .  A
O327        V330   1.897       .  S
O327        C332   1.264       .  A
O328        C331   1.263       .  A
C331        C337   1.460       .  S
C332        C357   1.463       .  S
C333        C345   1.458       .  S
C334        C349   1.461       .  S
C335        C628   1.478       .  S
C335        N336   1.360       .  A
C335        N340   1.356       .  A
N336        C337   1.357       .  A
C337        N338   1.355       .  A
N338        C339   1.355       .  A
C339        C370   1.456       .  S
C339        N340   1.354       .  A
C341        C614   1.486       .  S
C341        N342   1.358       .  A
C341        N346   1.360       .  A
N342        C343   1.356       .  A
C343        C383   1.460       .  S
C343        N344   1.354       .  A
N344        C345   1.356       .  A
C345        N346   1.356       .  A
C347        C600   1.489       .  S
C347        N348   1.362       .  A
C347        N352   1.355       .  A
N348        C349   1.359       .  A
C349        N350   1.356       .  A
N350        C351   1.354       .  A
C351        C372   1.456       .  S
C351        N352   1.353       .  A
C353        C586   1.483       .  S
C353        N354   1.355       .  A
C353        N358   1.363       .  A
N354        C355   1.352       .  A
C355        C385   1.455       .  S
C355        N356   1.354       .  A
N356        C357   1.356       .  A
C357        N358   1.361       .  A
O359        V367   1.892   1_545  S
O359        C369   1.261       .  A
O360        V367   1.891       .  S
O360        C370   1.261       .  A
O361        V367   1.895   1_545  S
O361        C371   1.263       .  A
O362        V367   1.896       .  S
O362        C372   1.263       .  A
O363        V368   1.893       .  S
O363        C372   1.262       .  A
O364        V368   1.895   1_545  S
O364        C371   1.262       .  A
O365        V368   1.898       .  S
O365        C370   1.263       .  A
O366        V368   1.898   1_545  S
O366        C369   1.264       .  A
V367        V368   2.091       .  T
C369        C417   1.457       .  S
C371        C409   1.458       .  S
O373        V381   1.895       .  S
O373        C383   1.262       .  A
O374        V381   1.895   1_545  S
O374        C384   1.262       .  A
O375        V381   1.897       .  S
O375        C385   1.263       .  A
O376        V381   1.898   1_545  S
O376        C386   1.264       .  A
O377        V382   1.892   1_545  S
O377        C386   1.262       .  A
O378        V382   1.892       .  S
O378        C385   1.261       .  A
O379        V382   1.897   1_545  S
O379        C384   1.264       .  A
O380        V382   1.898       .  S
O380        C383   1.264       .  A
V381        V382   2.091       .  T
C384        C423   1.459       .  S
C386        C403   1.458       .  S
O387        V395   1.891       .  S
O387        C397   1.262       .  A
O388        C398   1.263       .  A
O389        V395   1.897       .  S
O389        C399   1.263       .  A
O390        C400   1.264       .  A
O391        V396   1.901       .  S
O391        C400   1.263       .  A
O392        C399   1.264       .  A
O393        V396   1.902       .  S
O393        C398   1.264       .  A
O394        C397   1.264       .  A
C397        C421   1.459       .  S
C398        C411   1.462       .  S
C399        C415   1.463       .  S
C400        C405   1.463       .  S
C401        C572   1.492       .  S
C401        N402   1.357       .  A
C401        N406   1.363       .  A
N402        C403   1.354       .  A
C403        N404   1.355       .  A
N404        C405   1.355       .  A
C405        N406   1.359       .  A
C407        C561   1.486       .  S
C407        N408   1.357       .  A
C407        N412   1.362       .  A
N408        C409   1.355       .  A
C409        N410   1.354       .  A
N410        C411   1.355       .  A
C411        N412   1.358       .  A
C413        C547   1.490       .  S
C413        N414   1.362       .  A
C413        N418   1.357       .  A
N414        C415   1.358       .  A
C415        N416   1.356       .  A
N416        C417   1.355       .  A
C417        N418   1.354       .  A
C419        C530   1.492       .  S
C419        N420   1.362       .  A
C419        N424   1.359       .  A
N420        C421   1.357       .  A
C421        N422   1.355       .  A
N422        C423   1.354       .  A
C423        N424   1.356       .  A
O425        V433   1.892   1_655  S
O425        C435   1.262       .  A
O426        V433   1.891       .  S
O426        C436   1.262       .  A
O427        V433   1.894   1_655  S
O427        C437   1.263       .  A
O428        V433   1.896       .  S
O428        C438   1.263       .  A
O429        V434   1.902       .  S
O429        C438   1.264       .  A
O430        V434   1.900   1_655  S
O430        C437   1.263       .  A
O431        V434   1.899       .  S
O431        C436   1.264       .  A
O432        V434   1.902   1_655  S
O432        C435   1.264       .  A
V433        V434   2.090       .  T
C435        C521   1.460       .  S
C436        C471   1.458       .  S
C437        C513   1.460       .  S
C438        C489   1.462       .  S
O439        V447   1.902   1_455  S
O439        C449   1.264       .  A
O440        V447   1.900       .  S
O440        C450   1.263       .  A
O441        V447   1.903   1_455  S
O441        C451   1.264       .  A
O442        V447   1.903       .  S
O442        C452   1.264       .  A
O443        V448   1.894   1_655  S
O443        C452   1.263       .  A
O444        V448   1.894       .  S
O444        C451   1.263       .  A
O445        V448   1.896   1_655  S
O445        C450   1.263       .  A
O446        V448   1.897       .  S
O446        C449   1.264       .  A
V447        V448   2.090   1_655  T
C449        C475   1.464       .  S
C450        C527   1.462       .  S
C451        C483   1.463       .  S
C452        C507   1.462       .  S
O453        V461   1.894       .  S
O453        C463   1.262       .  A
O454        C464   1.262       .  A
O455        V461   1.896       .  S
O455        C465   1.263       .  A
O456        C466   1.263       .  A
O457        V462   1.896   1_556  S
O457        C466   1.262       .  A
O458        C465   1.263       .  A
O459        V462   1.897   1_556  S
O459        C464   1.263       .  A
O460        C463   1.263       .  A
C463        C487   1.456       .  S
C464        C477   1.458       .  S
C465        C481   1.460       .  S
C466        C469   1.459       .  S
C467        C617   1.486       .  S
C467        N468   1.359       .  A
C467        N472   1.359       .  A
N468        C469   1.357       .  A
C469        N470   1.355       .  A
N470        C471   1.355       .  A
C471        N472   1.355       .  A
C473        C575   1.492       .  S
C473        N474   1.363       .  A
C473        N478   1.357       .  A
N474        C475   1.359       .  A
C475        N476   1.356       .  A
N476        C477   1.355       .  A
C477        N478   1.354       .  A
C479        C533   1.492       .  S
C479        N480   1.358       .  A
C479        N484   1.362       .  A
N480        C481   1.354       .  A
C481        N482   1.355       .  A
N482        C483   1.356       .  A
C483        N484   1.358       .  A
C485        C589   1.482       .  S
C485        N486   1.355       .  A
C485        N490   1.362       .  A
N486        C487   1.354       .  A
C487        N488   1.355       .  A
N488        C489   1.356       .  A
C489        N490   1.359       .  A
O491        V499   1.896   1_556  S
O491        C501   1.263       .  A
O492        C502   1.262       .  A
O493        V499   1.898   1_556  S
O493        C503   1.263       .  A
O494        C504   1.263       .  A
O495        V500   1.894       .  S
O495        C504   1.262       .  A
O496        C503   1.262       .  A
O497        V500   1.895       .  S
O497        C502   1.262       .  A
O498        C501   1.263       .  A
C501        C509   1.458       .  S
C502        C519   1.455       .  S
C503        C515   1.457       .  S
C504        C525   1.458       .  S
C505        C558   1.486       .  S
C505        N506   1.362       .  A
C505        N510   1.358       .  A
N506        C507   1.358       .  A
C507        N508   1.355       .  A
N508        C509   1.354       .  A
C509        N510   1.355       .  A
C511        C631   1.478       .  S
C511        N512   1.360       .  A
C511        N516   1.356       .  A
N512        C513   1.357       .  A
C513        N514   1.355       .  A
N514        C515   1.355       .  A
C515        N516   1.354       .  A
C517        C603   1.489       .  S
C517        N518   1.354       .  A
C517        N522   1.362       .  A
N518        C519   1.352       .  A
C519        N520   1.354       .  A
N520        C521   1.356       .  A
C521        N522   1.359       .  A
C523        C544   1.490       .  S
C523        N524   1.358       .  A
C523        N528   1.362       .  A
N524        C525   1.355       .  A
C525        N526   1.355       .  A
N526        C527   1.355       .  A
C527        N528   1.358       .  A
C529        C530   1.405       .  A
C529        C534   1.404       .  A
C529        H536   1.083       .  S
C530        C531   1.418       .  A
C531        C532   1.405       .  A
C531        N538   1.438       .  S
C532        C533   1.406       .  A
C532        H537   1.083       .  S
C533        C534   1.418       .  A
C534        N535   1.438       .  S
N535        H539   1.046       .  S
N535        H540   1.046       .  S
N538        H541   1.046       .  S
N538        H542   1.046       .  S
C543        C544   1.405       .  A
C543        C548   1.404       .  A
C543        H550   1.083       .  S
C544        C545   1.417       .  A
C545        C546   1.404       .  A
C545        N552   1.438       .  S
C546        C547   1.405       .  A
C546        H551   1.083       .  S
C547        C548   1.418       .  A
C548        N549   1.439       .  S
N549        H553   1.046       .  S
N549        H554   1.046       .  S
N552        H555   1.046       .  S
N552        H556   1.046       .  S
C557        C558   1.404       .  A
C557        C562   1.398       .  A
C557        H564   1.084       .  S
C558        C559   1.419       .  A
C559        C560   1.398       .  A
C559        N566   1.433       .  S
C560        C561   1.404       .  A
C560        H565   1.084       .  S
C561        C562   1.419       .  A
C562        N563   1.433       .  S
N563        H567   1.044       .  S
N563        H568   1.045       .  S
N566        H569   1.045       .  S
N566        H570   1.044       .  S
C571        C572   1.405       .  A
C571        C576   1.398       .  A
C571        H578   1.084       .  S
C572        C573   1.421       .  A
C573        C574   1.398       .  A
C573        N580   1.433       .  S
C574        C575   1.405       .  A
C574        H579   1.084       .  S
C575        C576   1.422       .  A
C576        N577   1.433       .  S
N577        H581   1.045       .  S
N577        H582   1.045       .  S
N580        H583   1.045       .  S
N580        H584   1.045       .  S
C585        C586   1.403       .  A
C585        C590   1.399       .  A
C585        H592   1.084       .  S
C586        C587   1.419       .  A
C587        C588   1.396       .  A
C587        N594   1.433       .  S
C588        C589   1.402       .  A
C588        H593   1.084       .  S
C589        C590   1.419       .  A
C590        N591   1.433       .  S
N591        H595   1.044       .  S
N591        H596   1.045       .  S
N594        H597   1.045       .  S
N594        H598   1.044       .  S
C599        C600   1.404       .  A
C599        C604   1.396       .  A
C599        H606   1.084       .  S
C600        C601   1.422       .  A
C601        C602   1.396       .  A
C601        N608   1.433       .  S
C602        C603   1.404       .  A
C602        H607   1.084       .  S
C603        C604   1.422       .  A
C604        N605   1.433       .  S
N605        H609   1.045       .  S
N605        H610   1.045       .  S
N608        H611   1.045       .  S
N608        H612   1.045       .  S
C613        C614   1.406       .  A
C613        C618   1.404       .  A
C613        H620   1.083       .  S
C614        C615   1.415       .  A
C615        C616   1.403       .  A
C615        N622   1.439       .  S
C616        C617   1.406       .  A
C616        H621   1.083       .  S
C617        C618   1.415       .  A
C618        N619   1.439       .  S
N619        H623   1.046       .  S
N619        H624   1.045       .  S
N622        H625   1.045       .  S
N622        H626   1.046       .  S
C627        C628   1.403       .  A
C627        C632   1.396       .  A
C627        H634   1.084       .  S
C628        C629   1.417       .  A
C629        C630   1.396       .  A
C629        N636   1.433       .  S
C630        C631   1.404       .  A
C630        H635   1.084       .  S
C631        C632   1.417       .  A
C632        N633   1.433       .  S
N633        H637   1.045       .  S
N633        H638   1.044       .  S
N636        H639   1.044       .  S
N636        H640   1.045       .  S
