geometry optimzed in LAMMPS
_audit_creation_date              2020-12-01 
_audit_creation_method            'lammps2cif' 
_symmetry_space_group_name_H-M    'P1' 
_symmetry_Int_Tables_number       1 
_symmetry_cell_setting            triclinic 
loop_ 
_symmetry_equiv_pos_as_xyz 
  x,y,z 
_cell_length_a                    28.98526738 
_cell_length_b                    28.98617727420321 
_cell_length_c                    32.799254482419386 
_cell_angle_alpha                 88.3662114314024 
_cell_angle_beta                  89.50061016473818 
_cell_angle_gamma                 90.4883668222073 
loop_ 
_atom_site_label 
_atom_site_type_symbol 
_atom_site_fract_x 
_atom_site_fract_y 
_atom_site_fract_z 
_atom_site_charge 
O1          O  0.04731515  0.77531416  0.46252031    -0.71700
O2          O  0.95019165  0.86394397  0.45126790    -0.71900
O3          O  0.04284197  0.86696359  0.45652360    -0.71800
O4          O  0.95186214  0.77178261  0.45648496    -0.71800
O5          O  0.93974471  0.78102219  0.02087178    -0.71700
O6          O  0.04255377  0.86231333  0.02232686    -0.71700
O7          O  0.95208835  0.87082342  0.01668851    -0.71700
O8          O  0.03322010  0.77133279  0.02720487    -0.71900
V9          V  0.99788118  0.81900612  0.45767591     1.35200
V10         V  0.99210721  0.82097728  0.02050837     1.35200
C11         C  0.05832386  0.76026216  0.99743630     0.77600
C12         C  0.93582066  0.88322629  0.48307360     0.77600
C13         C  0.05862185  0.88013096  0.98952888     0.77500
C14         C  0.92691473  0.76404357  0.48796362     0.77400
O15         O  0.79303782  0.01757318  0.02829452    -0.71700
O16         O  0.88907815  0.93323978  0.01726135    -0.72300
O17         O  0.88396419  0.02371471  0.02524437    -0.71800
O18         O  0.79859397  0.92370024  0.01969903    -0.71800
O19         O  0.78967585  0.94142030  0.45552948    -0.71700
O20         O  0.88858025  0.02697773  0.45927342    -0.71700
O21         O  0.88158726  0.93528240  0.45161916    -0.71700
O22         O  0.79800986  0.03634191  0.46395238    -0.71900
V23         V  0.84074017  0.97479994  0.02143744     1.35200
V24         V  0.83893776  0.98469239  0.45856735     1.35200
C25         C  0.78361203  0.04570511  0.49937709     0.77600
C26         C  0.90081523  0.91879222  0.48329773     0.77600
C27         C  0.90189269  0.04096012  0.49325127     0.77500
C28         C  0.78102163  0.91437879  0.48580071     0.77400
O29         O  0.04338085  0.18074435  0.03567440    -0.71700
O30         O  0.95010615  0.09005710  0.02897903    -0.71900
O31         O  0.04163215  0.08920896  0.03481665    -0.71800
O32         O  0.94971985  0.18114081  0.02940065    -0.71800
O33         O  0.95483651  0.18490970  0.46334617    -0.71700
O34         O  0.04675047  0.09272681  0.46873405    -0.71700
O35         O  0.95532334  0.09365486  0.46301513    -0.71700
O36         O  0.05130335  0.18406088  0.46967818    -0.71900
V37         V  0.99634605  0.13580488  0.03085919     1.35200
V38         V  0.00200557  0.13925888  0.46740144     1.35200
C39         C  0.06568106  0.19546396  0.50441269     0.77600
C40         C  0.93719609  0.07635663  0.49518100     0.77600
C41         C  0.05910440  0.07504267  0.50246233     0.77500
C42         C  0.93410109  0.19601545  0.49565609     0.77400
O43         O  0.10945321  0.02095080  0.03478165    -0.71700
O44         O  0.19601604  0.92283424  0.02652359    -0.71900
O45         O  0.20085194  0.01636986  0.03715531    -0.71800
O46         O  0.10526734  0.92959114  0.02606947    -0.71800
O47         O  0.11305949  0.93369852  0.46049620    -0.71700
O48         O  0.19716671  0.03470012  0.47266669    -0.71700
O49         O  0.20469406  0.94131756  0.46257562    -0.71700
O50         O  0.10697983  0.02477842  0.46871698    -0.71900
V51         V  0.15332591  0.97269707  0.03004887     1.35200
V52         V  0.15582069  0.98332350  0.46724784     1.35200
C53         C  0.09303920  0.03872394  0.50254106     0.77600
C54         C  0.21312915  0.91410382  0.49225211     0.77600
C55         C  0.21158777  0.04384283  0.50791275     0.77500
C56         C  0.09374765  0.91585109  0.49204828     0.77400
C57         C  0.15602329  0.69234771  0.04931569     0.86600
C58         C  0.18957842  0.73294997  0.03992044    -0.53600
C59         C  0.18391154  0.75351276  0.50262481     0.09500
C60         C  0.14404304  0.73215601  0.47769469     0.20500
C61         C  0.10823965  0.71371804  0.04333228    -0.54400
C62         C  0.10102975  0.73375403  0.50605759     0.09600
C63         C  0.16230626  0.66013343  0.01348709    -0.53900
C64         C  0.15596302  0.68053428  0.47615628     0.10200
H65         H  0.21646681  0.74409684  0.06022273     0.14700
H66         H  0.13927755  0.74904277  0.44721963     0.00400
H67         H  0.08237785  0.71379292  0.06750624     0.15000
H68         H  0.17072714  0.62376927  0.51744774     0.14800
C69         C  0.28228296  0.81732346  0.44363793     0.86600
C70         C  0.24080802  0.78372295  0.45018808    -0.53600
C71         C  0.21794618  0.78880783  0.98615010     0.09500
C72         C  0.23818318  0.82770229  0.01240033     0.20500
C73         C  0.26118485  0.86520534  0.44844147    -0.54400
C74         C  0.23899895  0.87135826  0.98434276     0.09600
C75         C  0.31194215  0.80949821  0.48170939    -0.53900
C76         C  0.28912219  0.81506113  0.01728460     0.10200
H77         H  0.23155626  0.75653857  0.42974192     0.14700
H78         H  0.21969230  0.83208737  0.04182579     0.00400
H79         H  0.26341430  0.89203526  0.42466470     0.15000
H80         H  0.34845466  0.80129223  0.98003956     0.14800
N81         N  0.49344187  0.81166705  0.16680166    -0.36500
N82         N  0.56423131  0.81400181  0.22898904    -0.57100
N83         N  0.49160813  0.81293844  0.29118612    -0.36500
N84         N  0.42080907  0.80631556  0.22959883    -0.57100
C85         C  0.53159166  0.80710155  0.14303221     0.27100
C86         C  0.45601410  0.80463642  0.14324808     0.27100
C87         C  0.52944374  0.80511864  0.31414298     0.27100
C88         C  0.45442032  0.80028995  0.31428880     0.27100
C89         C  0.59147058  0.82167045  0.19575980     0.35700
C90         C  0.59008909  0.82352381  0.26185082     0.35700
C91         C  0.39423271  0.81368939  0.19645199     0.35700
C92         C  0.39350605  0.81280766  0.26256131     0.35700
C93         C  0.51810540  0.79755975  0.10366171    -0.21800
C94         C  0.47064616  0.79615614  0.10375016    -0.21800
C95         C  0.51615685  0.78702188  0.35210884    -0.21800
C96         C  0.46882769  0.78399238  0.35219409    -0.21800
C97         C  0.63513913  0.83543257  0.20764448    -0.22800
C98         C  0.63414096  0.83700095  0.24948786    -0.22800
C99         C  0.34955038  0.82393978  0.20852677    -0.22800
C100        C  0.34922632  0.82380532  0.25039333    -0.22800
C101        C  0.57806587  0.81462751  0.15497940    -0.18200
C102        C  0.40909588  0.80923759  0.15551361    -0.18200
C103        C  0.40775397  0.80694983  0.30343963    -0.18200
C104        C  0.57536972  0.81692660  0.30286973    -0.18200
H105        H  0.54006431  0.79326045  0.07721154     0.14700
H106        H  0.44948603  0.79061993  0.07729811     0.14700
H107        H  0.53824995  0.77756160  0.37738143     0.14700
H108        H  0.44737380  0.77189046  0.37754564     0.14700
H109        H  0.66466450  0.84354487  0.18824742     0.13000
H110        H  0.66278617  0.84633166  0.26861653     0.13000
H111        H  0.32014595  0.83087117  0.18927898     0.13000
H112        H  0.31969025  0.83073709  0.26960229     0.13000
H113        H  0.49268449  0.82368750  0.19616999     0.26300
H114        H  0.49094124  0.83172484  0.26375311     0.26300
C115        C  0.70161207  0.82307338  0.44133082     0.86600
C116        C  0.72663507  0.86894297  0.44576785    -0.53600
C117        C  0.75302962  0.87160484  0.97999257     0.09500
C118        C  0.75242142  0.82630174  0.00754511     0.20500
C119        C  0.74074757  0.78803017  0.44366820    -0.54400
C120        C  0.76627620  0.78624150  0.97902269     0.09600
C121        C  0.67456597  0.81502795  0.98140041    -0.53900
C122        C  0.70039618  0.81764953  0.01586443     0.10200
H123        H  0.72394053  0.89693420  0.42318124     0.14700
H124        H  0.77344044  0.82823500  0.03558606     0.00400
H125        H  0.74968544  0.76717654  0.41826890     0.15000
H126        H  0.63739902  0.80978600  0.98242364     0.14800
C127        C  0.83455665  0.67512728  0.46111527     0.86600
C128        C  0.79468646  0.70885788  0.46152128    -0.53600
C129        C  0.79925648  0.74566135  0.98617920     0.09500
C130        C  0.84198414  0.73987090  0.01497934     0.20500
C131        C  0.87867115  0.70418284  0.45689801    -0.54400
C132        C  0.88399259  0.73665405  0.98545347     0.09600
C133        C  0.83447313  0.65636507  0.50512896    -0.53900
C134        C  0.83845095  0.68960204  0.03382223     0.10200
H135        H  0.76321426  0.70160947  0.44531049     0.14700
H136        H  0.84557082  0.76723403  0.03776744     0.00400
H137        H  0.90501848  0.69781133  0.43400241     0.15000
H138        H  0.83333603  0.61964563  0.01321223     0.14800
C139        C  0.29552027  0.13009544  0.05355840     0.86600
C140        C  0.26177332  0.16992198  0.05219501    -0.53600
C141        C  0.22900463  0.17016745  0.52166898     0.09500
C142        C  0.23947478  0.13145106  0.49042987     0.20500
C143        C  0.26666329  0.08625610  0.04974408    -0.54400
C144        C  0.23904290  0.08571077  0.51617372     0.09600
C145        C  0.32077314  0.13593541  0.01263884    -0.53900
C146        C  0.29163387  0.13749900  0.47900399     0.10200
H147        H  0.26803291  0.19970179  0.07030993     0.14700
H148        H  0.21606392  0.13120755  0.46383231     0.00400
H149        H  0.26943212  0.05710591  0.07114960     0.15000
H150        H  0.35762481  0.13950267  0.50893973     0.14800
C151        C  0.15510973  0.27493933  0.05163947     0.86600
C152        C  0.10836317  0.25242790  0.04338782    -0.53600
C153        C  0.10753586  0.22442166  0.51062621     0.09500
C154        C  0.15560125  0.22080749  0.48856352     0.20500
C155        C  0.18727121  0.23392580  0.05588896    -0.54400
C156        C  0.19070964  0.20629068  0.52249623     0.09600
C157        C  0.16876192  0.29938948  0.51124403    -0.53900
C158        C  0.16877155  0.27174870  0.47822482     0.10200
H159        H  0.07789556  0.25651523  0.06217615     0.14700
H160        H  0.15571834  0.19814214  0.46184933     0.00400
H161        H  0.20516297  0.22835668  0.08438590     0.15000
H162        H  0.17651203  0.33612369  0.50882867     0.14800
N163        N  0.18196044  0.47622406  0.32632195    -0.36500
N164        N  0.17965489  0.40802782  0.26237758    -0.57100
N165        N  0.17607844  0.48348983  0.20167309    -0.36500
N166        N  0.17824242  0.55186796  0.26523388    -0.57100
C167        C  0.17699961  0.43678110  0.34935947     0.27100
C168        C  0.17270837  0.51210910  0.35079248     0.27100
C169        C  0.17982775  0.44726412  0.17660306     0.27100
C170        C  0.18145528  0.52257217  0.17832767     0.27100
C171        C  0.18346537  0.37831958  0.29467322     0.35700
C172        C  0.17832840  0.38225092  0.22868435     0.35700
C173        C  0.17648366  0.57758104  0.29890988     0.35700
C174        C  0.17753018  0.58160059  0.23273084     0.35700
C175        C  0.16534217  0.44793819  0.38898452    -0.21800
C176        C  0.16256021  0.49515132  0.38985547    -0.21800
C177        C  0.18721491  0.46364065  0.13690877    -0.21800
C178        C  0.18876919  0.51084845  0.13806696    -0.21800
C179        C  0.18539504  0.33339890  0.28132255    -0.22800
C180        C  0.18164269  0.33586325  0.23961503    -0.22800
C181        C  0.17553318  0.62406817  0.28772026    -0.22800
C182        C  0.17572315  0.62658342  0.24586914    -0.22800
C183        C  0.18224222  0.39071029  0.33613972    -0.18200
C184        C  0.17327684  0.55993788  0.33956276    -0.18200
C185        C  0.17795977  0.56881327  0.19137761    -0.18200
C186        C  0.17612847  0.39973077  0.18799073    -0.18200
H187        H  0.15862192  0.42445791  0.41464082     0.14700
H188        H  0.15349339  0.51472500  0.41632837     0.14700
H189        H  0.19134772  0.44382905  0.10969182     0.14700
H190        H  0.19439870  0.53395292  0.11195526     0.14700
H191        H  0.18844601  0.30198192  0.29968619     0.13000
H192        H  0.18210577  0.30682650  0.21958843     0.13000
H193        H  0.17389614  0.65321782  0.30755898     0.13000
H194        H  0.17441135  0.65803957  0.22737880     0.13000
H195        H  0.19461162  0.47858178  0.29666508     0.26300
H196        H  0.16566046  0.48166891  0.23195232     0.26300
N197        N  0.50282504  0.12676418  0.20621608    -0.36500
N198        N  0.42897321  0.13010943  0.26680326    -0.57100
N199        N  0.49786774  0.13677131  0.32970598    -0.36500
N200        N  0.57185030  0.13763751  0.26858750    -0.57100
C201        C  0.46562071  0.13566327  0.18279364     0.27100
C202        C  0.54055250  0.13908768  0.18375665     0.27100
C203        C  0.45908918  0.14594213  0.35143499     0.27100
C204        C  0.53462852  0.14875688  0.35249115     0.27100
C205        C  0.40451365  0.11708206  0.23412162     0.35700
C206        C  0.40143344  0.12282321  0.29988453     0.35700
C207        C  0.59957369  0.12729266  0.23679878     0.35700
C208        C  0.59731296  0.13180086  0.30261441     0.35700
C209        C  0.47990066  0.15457266  0.14536417    -0.21800
C210        C  0.52722270  0.15639695  0.14588003    -0.21800
C211        C  0.47151897  0.16385233  0.38859348    -0.21800
C212        C  0.51902920  0.16578252  0.38918104    -0.21800
C213        C  0.36120468  0.10123270  0.24651807    -0.22800
C214        C  0.35905068  0.10541376  0.28813404    -0.22800
C215        C  0.64291590  0.11508302  0.25055860    -0.22800
C216        C  0.64149727  0.11789058  0.29233327    -0.22800
C217        C  0.41952415  0.12362918  0.19315845    -0.18200
C218        C  0.58671455  0.13179281  0.19548509    -0.18200
C219        C  0.58175675  0.14097897  0.34256022    -0.18200
C220        C  0.41316718  0.13479395  0.34001464    -0.18200
H221        H  0.45851765  0.16530807  0.11998915     0.14700
H222        H  0.54933544  0.16870323  0.12104956     0.14700
H223        H  0.44888220  0.17358312  0.41323586     0.14700
H224        H  0.53976516  0.17745506  0.41422609     0.14700
H225        H  0.33367464  0.08878248  0.22754488     0.13000
H226        H  0.32951916  0.09690620  0.30739142     0.13000
H227        H  0.67247956  0.10546927  0.23240122     0.13000
H228        H  0.66982636  0.11065055  0.31274436     0.13000
H229        H  0.50272824  0.10790589  0.23370541     0.26300
H230        H  0.49942864  0.11802121  0.30323489     0.26300
C231        C  0.71154784  0.13501709  0.05407645     0.86600
C232        C  0.73498942  0.08957993  0.04545824    -0.53600
C233        C  0.75838847  0.08861250  0.50918842     0.09500
C234        C  0.75747039  0.13566679  0.48439181     0.20500
C235        C  0.75127035  0.17004044  0.05097479    -0.54400
C236        C  0.77492478  0.17337579  0.51427437     0.09600
C237        C  0.68213929  0.14567930  0.51670611    -0.53900
C238        C  0.70507472  0.14475851  0.48021106     0.10200
H239        H  0.73306224  0.06024956  0.06681490     0.14700
H240        H  0.77635481  0.13533684  0.45481520     0.00400
H241        H  0.76164653  0.18904166  0.07704961     0.15000
H242        H  0.64496455  0.14988800  0.51873820     0.14800
C243        C  0.84643085  0.28695508  0.02409900     0.86600
C244        C  0.81012626  0.24933721  0.03242813    -0.53600
C245        C  0.80949279  0.21328081  0.50629248     0.09500
C246        C  0.84732980  0.22001436  0.47187751     0.20500
C247        C  0.89178167  0.26029123  0.02278745    -0.54400
C248        C  0.89331991  0.22639052  0.49555963     0.09600
C249        C  0.83789087  0.30314086  0.98023299    -0.53900
C250        C  0.83866945  0.26908974  0.45244162     0.10200
H251        H  0.78635407  0.25288480  0.05762323     0.14700
H252        H  0.84829511  0.19183708  0.44967826     0.00400
H253        H  0.92041783  0.26534685  0.04317550     0.15000
H254        H  0.83370766  0.33955484  0.47148355     0.14800
N255        N  0.84057733  0.46766614  0.30504836    -0.36500
N256        N  0.84189535  0.55044845  0.24974509    -0.57100
N257        N  0.84036849  0.49094965  0.18137452    -0.36500
N258        N  0.83499660  0.40840262  0.23641232    -0.57100
C259        C  0.83015796  0.50186084  0.33076487     0.27100
C260        C  0.82771597  0.42711722  0.32377132     0.27100
C261        C  0.83559232  0.53241098  0.16163769     0.27100
C262        C  0.83111307  0.45787586  0.15431352     0.27100
C263        C  0.85218104  0.56960819  0.28564115     0.35700
C264        C  0.85212723  0.58245031  0.21999656     0.35700
C265        C  0.84119363  0.37551129  0.26606002     0.35700
C266        C  0.84110001  0.38781115  0.20031389     0.35700
C267        C  0.80998373  0.48281985  0.36597906    -0.21800
C268        C  0.80917643  0.43577783  0.36186986    -0.21800
C269        C  0.82341747  0.52544952  0.12149443    -0.21800
C270        C  0.82083625  0.47861856  0.11680988    -0.21800
C271        C  0.86935676  0.61406174  0.27850218    -0.22800
C272        C  0.86877652  0.62232567  0.23696919    -0.22800
C273        C  0.85055651  0.33359167  0.24877512    -0.22800
C274        C  0.85041584  0.34131321  0.20714987    -0.22800
C275        C  0.84159658  0.54931895  0.32465215    -0.18200
C276        C  0.83486231  0.38247946  0.30827842    -0.18200
C277        C  0.83596148  0.40965861  0.16128072    -0.18200
C278        C  0.84521897  0.57628514  0.17784772    -0.18200
H279        H  0.79776047  0.50080802  0.39237869     0.14700
H280        H  0.79636289  0.41099947  0.38458265     0.14700
H281        H  0.81799026  0.55136582  0.09764386     0.14700
H282        H  0.81329049  0.46197655  0.08850958     0.14700
H283        H  0.88052805  0.63836658  0.30090592     0.13000
H284        H  0.87954881  0.65389906  0.22108917     0.13000
H285        H  0.85613346  0.30078457  0.26446196     0.13000
H286        H  0.85604593  0.31545063  0.18452352     0.13000
H287        H  0.86038420  0.47150797  0.27857296     0.26300
H288        H  0.85452022  0.48516218  0.20993157     0.26300
C289        C  0.88464654  0.34061434  0.07548163    -0.21200
C290        C  0.84457415  0.32523500  0.05550647    -0.09200
C291        C  0.80174559  0.34346285  0.06792808     0.29600
C292        C  0.79871928  0.36988327  0.10291579    -0.21200
C293        C  0.83852470  0.38078026  0.12476722    -0.09300
C294        C  0.88159408  0.36742895  0.10995329     0.29600
F295        F  0.92081893  0.38018950  0.12912750    -0.19800
H296        H  0.91885130  0.33246827  0.06494760     0.18000
H297        H  0.76538619  0.38208378  0.11292954     0.18000
F298        F  0.76255803  0.33438971  0.04712439    -0.19800
C299        C  0.79523071  0.29545677  0.39066664    -0.21200
C300        C  0.83741717  0.28244689  0.40822509    -0.09200
C301        C  0.87860079  0.29635377  0.38818036     0.29600
C302        C  0.87748959  0.32611802  0.35358716    -0.21200
C303        C  0.83532556  0.34210810  0.33804049    -0.09300
C304        C  0.79409900  0.32435643  0.35551899     0.29600
F305        F  0.75276557  0.33860902  0.34095340    -0.19800
H306        H  0.76313822  0.28642814  0.40615081     0.18000
H307        H  0.90965448  0.33926551  0.34061638     0.18000
F308        F  0.91998250  0.28519848  0.40463753    -0.19800
C309        C  0.65191862  0.17385349  0.37713401    -0.21200
C310        C  0.61612386  0.14071292  0.37619169    -0.09200
C311        C  0.61279999  0.10703007  0.40767762     0.29600
C312        C  0.64346207  0.10755430  0.44019922    -0.21200
C313        C  0.67826462  0.14149094  0.44204351    -0.09300
C314        C  0.68295654  0.17419272  0.40984829     0.29600
F315        F  0.71591156  0.20760427  0.41106058    -0.19800
H316        H  0.65511979  0.19995447  0.35296058     0.18000
H317        H  0.63937836  0.08191933  0.46469416     0.18000
F318        F  0.57932280  0.07400778  0.40722328    -0.19800
C319        C  0.61920206  0.09651475  0.13291535    -0.21200
C320        C  0.62244730  0.13017345  0.16261208    -0.09200
C321        C  0.65634380  0.16479195  0.15817841     0.29600
C322        C  0.68585809  0.16622655  0.12409686    -0.21200
C323        C  0.68239530  0.13291709  0.09352468    -0.09300
C324        C  0.64838771  0.09791588  0.09875507     0.29600
F325        F  0.64232228  0.06563806  0.07003925    -0.19800
H326        H  0.59279604  0.06989040  0.13557070     0.18000
H327        H  0.70962163  0.19493656  0.12157114     0.18000
F328        F  0.65931792  0.19867992  0.18578704    -0.19800
C329        C  0.21681208  0.31909686  0.42932129    -0.21200
C330        C  0.17683047  0.29233401  0.43689691    -0.09200
C331        C  0.14087421  0.29400990  0.40848092     0.29600
C332        C  0.14374230  0.32434520  0.37446009    -0.21200
C333        C  0.18263529  0.35306746  0.36819974    -0.09300
C334        C  0.21986513  0.34906355  0.39519118     0.29600
F335        F  0.25793766  0.37623275  0.38983316    -0.19800
H336        H  0.24461357  0.31868003  0.45119730     0.18000
H337        H  0.11460497  0.32726659  0.35412575     0.18000
F338        F  0.10127765  0.26969243  0.41564129    -0.19800
C339        C  0.12142987  0.31895753  0.11279384    -0.21200
C340        C  0.15935059  0.30690487  0.08806305    -0.09200
C341        C  0.20326914  0.32511149  0.09781768     0.29600
C342        C  0.20885281  0.35389241  0.13096073    -0.21200
C343        C  0.17082864  0.36612625  0.15477532    -0.09300
C344        C  0.12714371  0.34819027  0.14568210     0.29600
F345        F  0.08975022  0.35968360  0.16831270    -0.19800
H346        H  0.08694324  0.30688812  0.10699115     0.18000
H347        H  0.24278323  0.36756855  0.13757196     0.18000
F348        F  0.24107019  0.31502268  0.07511985    -0.19800
C349        C  0.34581623  0.14868348  0.16062876    -0.21200
C350        C  0.38538216  0.12148244  0.15951773    -0.09200
C351        C  0.39338368  0.09436041  0.12530417     0.29600
C352        C  0.36447261  0.09786042  0.09144749    -0.21200
C353        C  0.32612271  0.12734595  0.09135383    -0.09300
C354        C  0.31530025  0.14990554  0.12806613     0.29600
F355        F  0.27434925  0.17095761  0.13429309    -0.19800
H356        H  0.33814870  0.16879175  0.18715100     0.18000
H357        H  0.37206241  0.07741507  0.06512879     0.18000
F358        F  0.42975020  0.06519693  0.12437925    -0.19800
C359        C  0.35806873  0.17736854  0.38500276    -0.21200
C360        C  0.37583711  0.13531965  0.37174597    -0.09200
C361        C  0.35962044  0.09388408  0.39027323     0.29600
C362        C  0.32796370  0.09472964  0.42279353    -0.21200
C363        C  0.31214280  0.13684187  0.43750906    -0.09300
C364        C  0.32683190  0.17820345  0.41792567     0.29600
F365        F  0.31340648  0.21940493  0.43246764    -0.19800
H366        H  0.37016644  0.20962320  0.37107477     0.18000
H367        H  0.31812396  0.06259606  0.43832091     0.18000
F368        F  0.37625346  0.05276650  0.37822552    -0.19800
C369        C  0.85921330  0.59984232  0.42980521    -0.21200
C370        C  0.83233207  0.64007526  0.42715411    -0.09200
C371        C  0.81092791  0.65079867  0.38932475     0.29600
C372        C  0.81210947  0.61990785  0.35768472    -0.21200
C373        C  0.83884088  0.58003898  0.36042138    -0.09300
C374        C  0.86301122  0.57048039  0.39672340     0.29600
F375        F  0.89109117  0.53333590  0.39986684    -0.19800
H376        H  0.87886528  0.59201706  0.45701172     0.18000
H377        H  0.79378079  0.62845408  0.32986428     0.18000
F378        F  0.79174921  0.69247257  0.38093398    -0.19800
C379        C  0.88542363  0.65050969  0.08733735    -0.21200
C380        C  0.84514502  0.67487626  0.07728546    -0.09200
C381        C  0.80772103  0.67283938  0.10490629     0.29600
C382        C  0.80950605  0.64406315  0.14022582    -0.21200
C383        C  0.84846541  0.61669906  0.14829753    -0.09300
C384        C  0.88710514  0.62162023  0.12229926     0.29600
F385        F  0.92480683  0.59498490  0.12859643    -0.19800
H386        H  0.91423552  0.65066165  0.06605677     0.18000
H387        H  0.77908928  0.64023629  0.15947578     0.18000
F388        F  0.76789415  0.69492592  0.09569298    -0.19800
C389        C  0.63193708  0.77408813  0.10773868    -0.21200
C390        C  0.61464826  0.81555477  0.12264651    -0.09200
C391        C  0.63041501  0.85768980  0.10517178     0.29600
C392        C  0.66171302  0.85817847  0.07234407    -0.21200
C393        C  0.67751121  0.81671251  0.05637170    -0.09300
C394        C  0.66289810  0.77459957  0.07462381     0.29600
F395        F  0.67671465  0.73405932  0.05900720    -0.19800
H396        H  0.61998875  0.74133271  0.12078299     0.18000
H397        H  0.67168674  0.89087730  0.05789148     0.18000
F398        F  0.61391666  0.89820269  0.11875122    -0.19800
C399        C  0.67413419  0.78775500  0.37369513    -0.21200
C400        C  0.67050269  0.82194430  0.40355636    -0.09200
C401        C  0.63545927  0.85521646  0.39863349     0.29600
C402        C  0.60564128  0.85423564  0.36531285    -0.21200
C403        C  0.60984167  0.82016488  0.33604505    -0.09300
C404        C  0.64447625  0.78710734  0.34037819     0.29600
F405        F  0.64857602  0.75304908  0.31302945    -0.19800
H406        H  0.69850881  0.76007166  0.37571123     0.18000
H407        H  0.57857931  0.87966610  0.36266045     0.18000
F408        F  0.62940180  0.88830503  0.42661032    -0.19800
C409        C  0.30702713  0.77969103  0.37621005    -0.21200
C410        C  0.31191727  0.81479657  0.40485558    -0.09200
C411        C  0.34775070  0.84774518  0.39840353     0.29600
C412        C  0.37743841  0.84545130  0.36488506    -0.21200
C413        C  0.37306662  0.81000106  0.33708186    -0.09300
C414        C  0.33747335  0.77715437  0.34281114     0.29600
F415        F  0.33306255  0.74184744  0.31679065    -0.19800
H416        H  0.28085437  0.75319726  0.37977999     0.18000
H417        H  0.40475619  0.87099957  0.36101850     0.18000
F418        F  0.35478794  0.88196721  0.42515614    -0.19800
C419        C  0.32363949  0.85279463  0.07685010    -0.21200
C420        C  0.31329103  0.81217782  0.05652447    -0.09200
C421        C  0.33148470  0.77003816  0.07074231     0.29600
C422        C  0.36100767  0.76889655  0.10422928    -0.21200
C423        C  0.37348423  0.80992010  0.12319625    -0.09300
C424        C  0.35392295  0.85182425  0.10980913     0.29600
F425        F  0.36552955  0.89189291  0.12770141    -0.19800
H426        H  0.31019056  0.88555188  0.06580024     0.18000
H427        H  0.37571372  0.73635749  0.11437028     0.18000
F428        F  0.32185163  0.73038493  0.05134728    -0.19800
C429        C  0.13139943  0.60350769  0.13541734    -0.21200
C430        C  0.17136399  0.60527273  0.15895628    -0.09200
C431        C  0.20565244  0.63826717  0.14870509     0.29600
C432        C  0.20013093  0.66833432  0.11478041    -0.21200
C433        C  0.16062420  0.66542171  0.08995451    -0.09300
C434        C  0.12639889  0.63224968  0.10102864     0.29600
F435        F  0.08871449  0.62597155  0.07746600    -0.19800
H436        H  0.10487999  0.57790056  0.14259477     0.18000
H437        H  0.22818465  0.69179862  0.10720693     0.18000
F438        F  0.24529881  0.64001598  0.17035601    -0.19800
C439        C  0.20280065  0.63109009  0.43116886    -0.21200
C440        C  0.16123972  0.65408518  0.43847998    -0.09200
C441        C  0.12382371  0.64738492  0.41229775     0.29600
C442        C  0.12786194  0.61721877  0.37975404    -0.21200
C443        C  0.16934499  0.59371229  0.37288476    -0.09300
C444        C  0.20696087  0.60135077  0.39856642     0.29600
F445        F  0.24741625  0.57923816  0.39248212    -0.19800
H446        H  0.23184549  0.63562824  0.45127914     0.18000
H447        H  0.09844530  0.61142792  0.36035693     0.18000
F448        F  0.08278676  0.66797138  0.41954975    -0.19800
O449        O  0.04744375  0.77532254  0.96212535    -0.71700
O450        O  0.95027489  0.86393295  0.95086023    -0.71900
O451        O  0.04296069  0.86697019  0.95599792    -0.71800
O452        O  0.95199952  0.77177304  0.95620463    -0.71800
O453        O  0.93955459  0.78087988  0.52116222    -0.71700
O454        O  0.04233892  0.86229010  0.52285020    -0.71700
O455        O  0.95184753  0.87070445  0.51711487    -0.71700
O456        O  0.03308273  0.77125584  0.52759681    -0.71900
V457        V  0.99799705  0.81900893  0.95726536     1.35200
V458        V  0.99191217  0.82088057  0.52091977     1.35200
C459        C  0.05820086  0.76022690  0.49781912     0.77600
C460        C  0.93596197  0.88326396  0.98266605     0.77600
C461        C  0.05844590  0.88013703  0.49007287     0.77500
C462        C  0.92710582  0.76408264  0.98772444     0.77400
O463        O  0.79300524  0.01776849  0.52837738    -0.71700
O464        O  0.88893867  0.93328432  0.51758566    -0.72300
O465        O  0.88395269  0.02378696  0.52556560    -0.71800
O466        O  0.79844418  0.92391361  0.51975717    -0.71800
O467        O  0.78959197  0.94116396  0.95549331    -0.71700
O468        O  0.88841737  0.02692587  0.95894617    -0.71700
O469        O  0.88152173  0.93520025  0.95131592    -0.71700
O470        O  0.79782526  0.03612947  0.96385627    -0.71900
V471        V  0.84066117  0.97493295  0.52163591     1.35200
V472        V  0.83881084  0.98453993  0.95837546     1.35200
C473        C  0.78353480  0.04549844  0.99931295     0.77600
C474        C  0.90088661  0.91876515  0.98294752     0.77600
C475        C  0.90181772  0.04090898  0.99290184     0.77500
C476        C  0.78106316  0.91411921  0.98579860     0.77400
O477        O  0.04332665  0.18106724  0.53558256    -0.71700
O478        O  0.95015942  0.09022797  0.52927290    -0.71900
O479        O  0.04170806  0.08949416  0.53499119    -0.71800
O480        O  0.94972958  0.18135519  0.52948470    -0.71800
O481        O  0.95495940  0.18490349  0.96327658    -0.71700
O482        O  0.04676886  0.09262410  0.96856559    -0.71700
O483        O  0.95533567  0.09366157  0.96272941    -0.71700
O484        O  0.05151764  0.18390802  0.96979221    -0.71900
V485        V  0.99636688  0.13604268  0.53097601     1.35200
V486        V  0.00209663  0.13920545  0.96729709     1.35200
C487        C  0.06590070  0.19512385  0.00459061     0.77600
C488        C  0.93715250  0.07629346  0.99484958     0.77600
C489        C  0.05906900  0.07485174  0.00227009     0.77500
C490        C  0.93410876  0.19585244  0.99557738     0.77400
O491        O  0.10951680  0.02115641  0.53502462    -0.71700
O492        O  0.19596975  0.92288674  0.52682603    -0.71900
O493        O  0.20096252  0.01649548  0.53722936    -0.71800
O494        O  0.10518671  0.92971066  0.52653781    -0.71800
O495        O  0.11328321  0.93373193  0.96004128    -0.71700
O496        O  0.19721831  0.03480670  0.97263006    -0.71700
O497        O  0.20490923  0.94146408  0.96232805    -0.71700
O498        O  0.10706032  0.02476029  0.96846966    -0.71900
V499        V  0.15333290  0.97282000  0.53032412     1.35200
V500        V  0.15596462  0.98338978  0.96699458     1.35200
C501        C  0.09302487  0.03857864  0.00230796     0.77600
C502        C  0.21326706  0.91416480  0.99196334     0.77600
C503        C  0.21151392  0.04383469  0.00794235     0.77500
C504        C  0.09391447  0.91581604  0.99153756     0.77400
C505        C  0.15591491  0.69212275  0.54951484     0.86600
C506        C  0.18948676  0.73276015  0.54024956    -0.53600
C507        C  0.18399301  0.75354988  0.00223584     0.09500
C508        C  0.14413875  0.73206898  0.97736896     0.20500
C509        C  0.10813026  0.71352224  0.54359997    -0.54400
C510        C  0.10113234  0.73378713  0.00572325     0.09600
C511        C  0.16220519  0.66006549  0.51355907    -0.53900
C512        C  0.15605784  0.68042760  0.97601782     0.10200
H513        H  0.21641035  0.74379286  0.56056387     0.14700
H514        H  0.13936968  0.74882672  0.94684134     0.00400
H515        H  0.08225145  0.71346785  0.56776432     0.15000
H516        H  0.17079355  0.62384311  0.01751313     0.14800
C517        C  0.28234146  0.81739437  0.94329826     0.86600
C518        C  0.24081533  0.78384029  0.94977070    -0.53600
C519        C  0.21795252  0.78871383  0.48657174     0.09500
C520        C  0.23816587  0.82766826  0.51277156     0.20500
C521        C  0.26131414  0.86529756  0.94813229    -0.54400
C522        C  0.23888667  0.87129085  0.48466379     0.09600
C523        C  0.31195108  0.80945241  0.98138727    -0.53900
C524        C  0.28913977  0.81512481  0.51761779     0.10200
H525        H  0.23157830  0.75666721  0.92930777     0.14700
H526        H  0.21970127  0.83206260  0.54220836     0.00400
H527        H  0.26359514  0.89215565  0.92438299     0.15000
H528        H  0.34846122  0.80140889  0.48034190     0.14800
N529        N  0.49379361  0.81164791  0.66689187    -0.36500
N530        N  0.56453881  0.81362327  0.72908187    -0.57100
N531        N  0.49191594  0.81266861  0.79120340    -0.36500
N532        N  0.42118200  0.80644795  0.72959066    -0.57100
C533        C  0.53193647  0.80658744  0.64322537     0.27100
C534        C  0.45637927  0.80430508  0.64340357     0.27100
C535        C  0.52970546  0.80465142  0.81415327     0.27100
C536        C  0.45468582  0.80004694  0.81424831     0.27100
C537        C  0.59172066  0.82157623  0.69586455     0.35700
C538        C  0.59032135  0.82330408  0.76194847     0.35700
C539        C  0.39469981  0.81416583  0.69644804     0.35700
C540        C  0.39392989  0.81317245  0.76253149     0.35700
C541        C  0.51846689  0.79638903  0.60399065    -0.21800
C542        C  0.47100301  0.79508537  0.60405929    -0.21800
C543        C  0.51635422  0.78641868  0.85205570    -0.21800
C544        C  0.46901211  0.78353920  0.85211159    -0.21800
C545        C  0.63527949  0.83567349  0.70775154    -0.22800
C546        C  0.63426845  0.83715727  0.74960134    -0.22800
C547        C  0.35013569  0.82491123  0.70849052    -0.22800
C548        C  0.34978340  0.82468705  0.75035640    -0.22800
C549        C  0.57836908  0.81438609  0.65510677    -0.18200
C550        C  0.40950684  0.80938855  0.65555725    -0.18200
C551        C  0.40807968  0.80699646  0.80338978    -0.18200
C552        C  0.57562121  0.81653174  0.80294824    -0.18200
H553        H  0.54043809  0.79159847  0.57763074     0.14700
H554        H  0.44983144  0.78913993  0.57769058     0.14700
H555        H  0.53840986  0.77681768  0.87731559     0.14700
H556        H  0.44749886  0.77143340  0.87742245     0.14700
H557        H  0.66473673  0.84404900  0.68835212     0.13000
H558        H  0.66283082  0.84669759  0.76874307     0.13000
H559        H  0.32082400  0.83217374  0.68922146     0.13000
H560        H  0.32031516  0.83187862  0.76956326     0.13000
H561        H  0.49305217  0.82438444  0.69602804     0.26300
H562        H  0.49132113  0.83159159  0.76383495     0.26300
C563        C  0.70174165  0.82265191  0.94144498     0.86600
C564        C  0.72663368  0.86858556  0.94589831    -0.53600
C565        C  0.75298173  0.87191369  0.47990022     0.09500
C566        C  0.75226343  0.82663531  0.50746260     0.20500
C567        C  0.74095341  0.78771216  0.94372874    -0.54400
C568        C  0.76605605  0.78653093  0.47898820     0.09600
C569        C  0.67439498  0.81557251  0.48127549    -0.53900
C570        C  0.70022957  0.81812095  0.51574245     0.10200
H571        H  0.72384565  0.89657465  0.92332010     0.14700
H572        H  0.77325842  0.82853873  0.53552022     0.00400
H573        H  0.74992214  0.76688017  0.91833383     0.15000
H574        H  0.63721829  0.81040428  0.48228749     0.14800
C575        C  0.83498141  0.67492734  0.96111350     0.86600
C576        C  0.79503845  0.70859055  0.96148014    -0.53600
C577        C  0.79897258  0.74589609  0.48622267     0.09500
C578        C  0.84167851  0.73997040  0.51507011     0.20500
C579        C  0.87901611  0.70405720  0.95683253    -0.54400
C580        C  0.88371624  0.73671549  0.48558004     0.09600
C581        C  0.83494295  0.65623598  0.00514457    -0.53900
C582        C  0.83807019  0.68966278  0.53386722     0.10200
H583        H  0.76365720  0.70131219  0.94514034     0.14700
H584        H  0.84530438  0.76729272  0.53789132     0.00400
H585        H  0.90536129  0.69770607  0.93392841     0.15000
H586        H  0.83288067  0.61975687  0.51312928     0.14800
C587        C  0.29541222  0.13072874  0.55304376     0.86600
C588        C  0.26121078  0.17015761  0.55195993    -0.53600
C589        C  0.22973013  0.17015345  0.02174903     0.09500
C590        C  0.24006858  0.13129127  0.99058277     0.20500
C591        C  0.26702212  0.08655473  0.54930325    -0.54400
C592        C  0.23896754  0.08561847  0.01642185     0.09600
C593        C  0.32032033  0.13704710  0.51196723    -0.53900
C594        C  0.29241622  0.13652283  0.97943427     0.10200
H595        H  0.26747754  0.20008284  0.56991089     0.14700
H596        H  0.21684410  0.13117884  0.96385428     0.00400
H597        H  0.27019068  0.05742003  0.57067193     0.15000
H598        H  0.35813662  0.13764478  0.00987805     0.14800
C599        C  0.15479315  0.27513083  0.55151362     0.86600
C600        C  0.10796358  0.25294838  0.54304889    -0.53600
C601        C  0.10791423  0.22387946  0.01097666     0.09500
C602        C  0.15594430  0.22043756  0.98879647     0.20500
C603        C  0.18664682  0.23390075  0.55581530    -0.54400
C604        C  0.19133038  0.20621708  0.02261848     0.09600
C605        C  0.16876172  0.29915705  0.01127053    -0.53900
C606        C  0.16880036  0.27140535  0.97832616     0.10200
H607        H  0.07746359  0.25709093  0.56178500     0.14700
H608        H  0.15607311  0.19771863  0.96211831     0.00400
H609        H  0.20434183  0.22807884  0.58438432     0.15000
H610        H  0.17633671  0.33592045  0.00874013     0.14800
N611        N  0.18161748  0.47564655  0.82645125    -0.36500
N612        N  0.17963142  0.40751772  0.76250132    -0.57100
N613        N  0.17589002  0.48302599  0.70182330    -0.36500
N614        N  0.17779201  0.55133072  0.76538383    -0.57100
C615        C  0.17661010  0.43618284  0.84945008     0.27100
C616        C  0.17220815  0.51149038  0.85091396     0.27100
C617        C  0.17970753  0.44681819  0.67675022     0.27100
C618        C  0.18111649  0.52212241  0.67847065     0.27100
C619        C  0.18343078  0.37778845  0.79477362     0.35700
C620        C  0.17841378  0.38176738  0.72880035     0.35700
C621        C  0.17609396  0.57700803  0.79908201     0.35700
C622        C  0.17712434  0.58109873  0.73290054     0.35700
C623        C  0.16474874  0.44727864  0.88904190    -0.21800
C624        C  0.16188503  0.49448581  0.88993035    -0.21800
C625        C  0.18698934  0.46321066  0.63704667    -0.21800
C626        C  0.18841338  0.51041756  0.63820222    -0.21800
C627        C  0.18547063  0.33288025  0.78140986    -0.22800
C628        C  0.18180267  0.33537426  0.73969879    -0.22800
C629        C  0.17522746  0.62350818  0.78792437    -0.22800
C630        C  0.17538142  0.62606654  0.74607645    -0.22800
C631        C  0.18202888  0.39014808  0.83622543    -0.18200
C632        C  0.17285168  0.55932561  0.83972386    -0.18200
C633        C  0.17756044  0.56835377  0.69153289    -0.18200
C634        C  0.17614711  0.39928262  0.68813562    -0.18200
H635        H  0.15796906  0.42375886  0.91465973     0.14700
H636        H  0.15266964  0.51402661  0.91638365     0.14700
H637        H  0.19114620  0.44340879  0.60982632     0.14700
H638        H  0.19396217  0.53352859  0.61208312     0.14700
H639        H  0.18849946  0.30145769  0.79977137     0.13000
H640        H  0.18232900  0.30635623  0.71965223     0.13000
H641        H  0.17367079  0.65264818  0.80777725     0.13000
H642        H  0.17410565  0.65754611  0.72761712     0.13000
H643        H  0.19444822  0.47806115  0.79685186     0.26300
H644        H  0.16553903  0.48115576  0.73211825     0.26300
N645        N  0.50277767  0.12824393  0.70597201    -0.36500
N646        N  0.42859683  0.13292585  0.76620978    -0.57100
N647        N  0.49752095  0.13804562  0.82933820    -0.36500
N648        N  0.57169124  0.13812249  0.76852128    -0.57100
C649        C  0.46577535  0.13777828  0.68248782     0.27100
C650        C  0.54073444  0.14017926  0.68367004     0.27100
C651        C  0.45874622  0.14734907  0.85098163     0.27100
C652        C  0.53424518  0.14971220  0.85229196     0.27100
C653        C  0.40436908  0.11953498  0.73352233     0.35700
C654        C  0.40109913  0.12516671  0.79923733     0.35700
C655        C  0.59933926  0.12721594  0.73684467     0.35700
C656        C  0.59690418  0.13193240  0.80265329     0.35700
C657        C  0.48039998  0.15678303  0.64520372    -0.21800
C658        C  0.52774503  0.15797977  0.64585836    -0.21800
C659        C  0.47101816  0.16518154  0.88817469    -0.21800
C660        C  0.51856050  0.16680019  0.88895782    -0.21800
C661        C  0.36123782  0.10309272  0.74588088    -0.22800
C662        C  0.35901576  0.10709286  0.78752767    -0.22800
C663        C  0.64238162  0.11422106  0.75079099    -0.22800
C664        C  0.64086256  0.11719928  0.79255838    -0.22800
C665        C  0.41957345  0.12595038  0.69260683    -0.18200
C666        C  0.58674086  0.13204048  0.69547608    -0.18200
C667        C  0.58134264  0.14150023  0.84252261    -0.18200
C668        C  0.41289288  0.13638334  0.83946822    -0.18200
H669        H  0.45921832  0.16790535  0.61981633     0.14700
H670        H  0.55009078  0.17014857  0.62114273     0.14700
H671        H  0.44812311  0.17512279  0.91258506     0.14700
H672        H  0.53925007  0.17830396  0.91409475     0.14700
H673        H  0.33398634  0.09009177  0.72689039     0.13000
H674        H  0.32981593  0.09777300  0.80693689     0.13000
H675        H  0.67183187  0.10402503  0.73276027     0.13000
H676        H  0.66896961  0.10951383  0.81309179     0.13000
H677        H  0.50232459  0.10915718  0.73334876     0.26300
H678        H  0.49899799  0.11932132  0.80284401     0.26300
C679        C  0.71172695  0.13527740  0.55412687     0.86600
C680        C  0.73499231  0.08978429  0.54544300    -0.53600
C681        C  0.75830038  0.08839749  0.00916021     0.09500
C682        C  0.75723583  0.13542785  0.98432414     0.20500
C683        C  0.75154033  0.17021814  0.55106477    -0.54400
C684        C  0.77466785  0.17319350  0.01419029     0.09600
C685        C  0.68189311  0.14522663  0.01668790    -0.53900
C686        C  0.70478789  0.14436759  0.98017726     0.10200
H687        H  0.73287983  0.06040644  0.56673957     0.14700
H688        H  0.77609333  0.13510639  0.95473437     0.00400
H689        H  0.76186865  0.18934265  0.57706209     0.15000
H690        H  0.64471248  0.14936795  0.01877135     0.14800
C691        C  0.84649823  0.28723724  0.52409304     0.86600
C692        C  0.81017619  0.24963822  0.53239112    -0.53600
C693        C  0.80937584  0.21301075  0.00628711     0.09500
C694        C  0.84720238  0.21975577  0.97185336     0.20500
C695        C  0.89185280  0.26055467  0.52283947    -0.54400
C696        C  0.89324744  0.22615146  0.99549552     0.09600
C697        C  0.83804118  0.30341122  0.48021426    -0.53900
C698        C  0.83846586  0.26883108  0.95244579     0.10200
H699        H  0.78636468  0.25320458  0.55755523     0.14700
H700        H  0.84813960  0.19159145  0.94964041     0.00400
H701        H  0.92047728  0.26561637  0.54323749     0.15000
H702        H  0.83347499  0.33927990  0.97152617     0.14800
N703        N  0.84058998  0.46746633  0.80511101    -0.36500
N704        N  0.84246322  0.55033225  0.74980069    -0.57100
N705        N  0.84033736  0.49094580  0.68146471    -0.36500
N706        N  0.83440492  0.40833605  0.73648765    -0.57100
C707        C  0.83042655  0.50174852  0.83081175     0.27100
C708        C  0.82740043  0.42701538  0.82383358     0.27100
C709        C  0.83567894  0.53244657  0.66175827     0.27100
C710        C  0.83075668  0.45794063  0.65443139     0.27100
C711        C  0.85306109  0.56931957  0.78569607     0.35700
C712        C  0.85287325  0.58229420  0.72006104     0.35700
C713        C  0.84038720  0.37535390  0.76610112     0.35700
C714        C  0.84038789  0.38776106  0.70036739     0.35700
C715        C  0.81006793  0.48286497  0.86600996    -0.21800
C716        C  0.80891466  0.43582548  0.86191902    -0.21800
C717        C  0.82322519  0.52557000  0.62167176    -0.21800
C718        C  0.82038329  0.47875582  0.61698003    -0.21800
C719        C  0.87065648  0.61361588  0.77856620    -0.22800
C720        C  0.86998991  0.62197031  0.73703831    -0.22800
C721        C  0.84943981  0.33339267  0.74876950    -0.22800
C722        C  0.84937135  0.34118541  0.70715261    -0.22800
C723        C  0.84225961  0.54911864  0.82469984    -0.18200
C724        C  0.83419586  0.38232364  0.80833602    -0.18200
C725        C  0.83544712  0.40970494  0.66135224    -0.18200
C726        C  0.84566712  0.57626066  0.67793069    -0.18200
H727        H  0.79794384  0.50094590  0.89239226     0.14700
H728        H  0.79589298  0.41115875  0.88463176     0.14700
H729        H  0.81779626  0.55152462  0.59785440     0.14700
H730        H  0.81259096  0.46217093  0.58870632     0.14700
H731        H  0.88211324  0.63777692  0.80098245     0.13000
H732        H  0.88099149  0.65347101  0.72116654     0.13000
H733        H  0.85478806  0.30052189  0.76441860     0.13000
H734        H  0.85482655  0.31532076  0.68449511     0.13000
H735        H  0.86043012  0.47116053  0.77863989     0.26300
H736        H  0.85465038  0.48503692  0.70994639     0.26300
C737        C  0.88451716  0.34080754  0.57565044    -0.21200
C738        C  0.84453926  0.32550974  0.55549240    -0.09200
C739        C  0.80165929  0.34375497  0.56776129     0.29600
C740        C  0.79846304  0.37009120  0.60278306    -0.21200
C741        C  0.83816096  0.38091533  0.62480295    -0.09300
C742        C  0.88129996  0.36756955  0.61014130     0.29600
F743        F  0.92042968  0.38027370  0.62949238    -0.19800
H744        H  0.91876684  0.33262417  0.56525926     0.18000
H745        H  0.76508608  0.38228443  0.61269043     0.18000
F746        F  0.76257255  0.33473415  0.54679519    -0.19800
C747        C  0.79461951  0.29559750  0.89102908    -0.21200
C748        C  0.83687275  0.28218455  0.90823441    -0.09200
C749        C  0.87795951  0.29569690  0.88783876     0.29600
C750        C  0.87675040  0.32550442  0.85327266    -0.21200
C751        C  0.83457485  0.34193368  0.83809996    -0.09300
C752        C  0.79337443  0.32453968  0.85591047     0.29600
F753        F  0.75201478  0.33916828  0.84169601    -0.19800
H754        H  0.76260990  0.28683872  0.90676827     0.18000
H755        H  0.90889798  0.33834154  0.84003020     0.18000
F756        F  0.91941106  0.28411649  0.90392622    -0.19800
C757        C  0.65173046  0.17386189  0.87711222    -0.21200
C758        C  0.61563489  0.14104302  0.87621759    -0.09200
C759        C  0.61205418  0.10741240  0.90772428     0.29600
C760        C  0.64278600  0.10766924  0.94020842    -0.21200
C761        C  0.67790484  0.14129737  0.94201290    -0.09300
C762        C  0.68281504  0.17395610  0.90980364     0.29600
F763        F  0.71603705  0.20710831  0.91098012    -0.19800
H764        H  0.65514364  0.19990496  0.85291031     0.18000
H765        H  0.63851678  0.08206495  0.96470525     0.18000
F766        F  0.57829989  0.07467069  0.90730308    -0.19800
C767        C  0.61854754  0.09724185  0.63235753    -0.21200
C768        C  0.62257761  0.13011020  0.66268118    -0.09200
C769        C  0.65747636  0.16380387  0.65897782     0.29600
C770        C  0.68700854  0.16532302  0.62491010    -0.21200
C771        C  0.68256769  0.13302905  0.59358904    -0.09300
C772        C  0.64781029  0.09869213  0.59823911     0.29600
F773        F  0.64110587  0.06716246  0.56898469    -0.19800
H774        H  0.59148734  0.07124522  0.63449835     0.18000
H775        H  0.71167423  0.19328631  0.62312306     0.18000
F776        F  0.66149266  0.19677850  0.68733544    -0.19800
C777        C  0.21682640  0.31834192  0.92916447    -0.21200
C778        C  0.17672178  0.29185218  0.93695631    -0.09200
C779        C  0.14056573  0.29373849  0.90875038     0.29600
C780        C  0.14339257  0.32402538  0.87470260    -0.21200
C781        C  0.18242270  0.35250132  0.86824620    -0.09300
C782        C  0.21982321  0.34827944  0.89501976     0.29600
F783        F  0.25802679  0.37521115  0.88943725    -0.19800
H784        H  0.24477256  0.31775810  0.95089578     0.18000
H785        H  0.11413523  0.32712925  0.85452141     0.18000
F786        F  0.10085361  0.26969820  0.91616123    -0.19800
C787        C  0.12124304  0.31890301  0.61282230    -0.21200
C788        C  0.15912007  0.30689548  0.58803153    -0.09200
C789        C  0.20311227  0.32485387  0.59787194     0.29600
C790        C  0.20878672  0.35347291  0.63109882    -0.21200
C791        C  0.17079165  0.36572420  0.65493043    -0.09300
C792        C  0.12705839  0.34793615  0.64581987     0.29600
F793        F  0.08972114  0.35939232  0.66853878    -0.19800
H794        H  0.08672635  0.30693341  0.60700434     0.18000
H795        H  0.24275485  0.36702490  0.63775456     0.18000
F796        F  0.24088986  0.31467609  0.57517579    -0.19800
C797        C  0.34563434  0.15010872  0.65998943    -0.21200
C798        C  0.38564255  0.12357184  0.65881377    -0.09200
C799        C  0.39407220  0.09664762  0.62453763     0.29600
C800        C  0.36505711  0.09968305  0.59071952    -0.21200
C801        C  0.32617540  0.12844110  0.59074567    -0.09300
C802        C  0.31502992  0.15077771  0.62750641     0.29600
F803        F  0.27369978  0.17105352  0.63386686    -0.19800
H804        H  0.33763588  0.17005135  0.68653789     0.18000
H805        H  0.37295421  0.07941463  0.56436078     0.18000
F806        F  0.43086483  0.06802576  0.62355409    -0.19800
C807        C  0.34916815  0.17372062  0.87942148    -0.21200
C808        C  0.37606726  0.13472094  0.87159233    -0.09200
C809        C  0.36951700  0.09453013  0.89587810     0.29600
C810        C  0.33847464  0.09417373  0.92879566    -0.21200
C811        C  0.31340061  0.13385910  0.93815773    -0.09300
C812        C  0.31811179  0.17340937  0.91264072     0.29600
F813        F  0.29526431  0.21257652  0.92159323    -0.19800
H814        H  0.35378110  0.20497288  0.86089854     0.18000
H815        H  0.33599215  0.06367279  0.94860569     0.18000
F816        F  0.39482794  0.05633735  0.88884502    -0.19800
C817        C  0.85948323  0.59948339  0.92996967    -0.21200
C818        C  0.83283368  0.63986466  0.92717872    -0.09200
C819        C  0.81186436  0.65080009  0.88920950     0.29600
C820        C  0.81313053  0.61995654  0.85754217    -0.21200
C821        C  0.83956364  0.57989472  0.86043061    -0.09300
C822        C  0.86339094  0.57014648  0.89688069     0.29600
F823        F  0.89121028  0.53281648  0.90018128    -0.19800
H824        H  0.87887745  0.59150956  0.95729082     0.18000
H825        H  0.79506578  0.62865168  0.82961787     0.18000
F826        F  0.79297153  0.69260254  0.88078460    -0.19800
C827        C  0.88533111  0.65023476  0.58704481    -0.21200
C828        C  0.84507990  0.67480920  0.57728784    -0.09200
C829        C  0.80794905  0.67299040  0.60522605     0.29600
C830        C  0.80997322  0.64426065  0.64057484    -0.21200
C831        C  0.84887207  0.61670302  0.64837399    -0.09300
C832        C  0.88724278  0.62138431  0.62202975     0.29600
F833        F  0.92486061  0.59454564  0.62801995    -0.19800
H834        H  0.91392066  0.65021515  0.56553611     0.18000
H835        H  0.77973967  0.64061305  0.66007164     0.18000
F836        F  0.76813668  0.69525910  0.59632422    -0.19800
C837        C  0.63239875  0.77416195  0.60781045    -0.21200
C838        C  0.61489029  0.81552047  0.62274691    -0.09200
C839        C  0.63027588  0.85775280  0.60519821     0.29600
C840        C  0.66140868  0.85843665  0.57225529    -0.21200
C841        C  0.67741149  0.81706689  0.55625737    -0.09300
C842        C  0.66319112  0.77486691  0.57457815     0.29600
F843        F  0.67720047  0.73442112  0.55890648    -0.19800
H844        H  0.62071979  0.74133605  0.62090575     0.18000
H845        H  0.67110439  0.89119080  0.55775416     0.18000
F846        F  0.61354697  0.89815516  0.61881584    -0.19800
C847        C  0.67462259  0.78764590  0.87356106    -0.21200
C848        C  0.67064543  0.82151307  0.90367704    -0.09200
C849        C  0.63533326  0.85452537  0.89896624     0.29600
C850        C  0.60553336  0.85355996  0.86564189    -0.21200
C851        C  0.61004336  0.81977985  0.83614662    -0.09300
C852        C  0.64498725  0.78702147  0.84023826     0.29600
F853        F  0.64944241  0.75327701  0.81262900    -0.19800
H854        H  0.69929529  0.76021995  0.87532093     0.18000
H855        H  0.57825366  0.87877403  0.86315515     0.18000
F856        F  0.62900653  0.88733855  0.92715132    -0.19800
C857        C  0.30711188  0.77987247  0.87585133    -0.21200
C858        C  0.31202335  0.81490142  0.90456131    -0.09200
C859        C  0.34794011  0.84778733  0.89823857     0.29600
C860        C  0.37774594  0.84545474  0.86481498    -0.21200
C861        C  0.37336390  0.81005834  0.83697119    -0.09300
C862        C  0.33765154  0.77732001  0.84253054     0.29600
F863        F  0.33321149  0.74210758  0.81641454    -0.19800
H864        H  0.28084736  0.75345565  0.87930951     0.18000
H865        H  0.40513912  0.87093654  0.86104336     0.18000
F866        F  0.35494481  0.88197535  0.92503134    -0.19800
C867        C  0.32440274  0.85313587  0.57669505    -0.21200
C868        C  0.31339557  0.81239145  0.55681587    -0.09200
C869        C  0.33111505  0.77017767  0.57135615     0.29600
C870        C  0.36081860  0.76905948  0.60471717    -0.21200
C871        C  0.37391176  0.81015935  0.62324590    -0.09300
C872        C  0.35482850  0.85216642  0.60954950     0.29600
F873        F  0.36700303  0.89229850  0.62706075    -0.19800
H874        H  0.31132922  0.88594328  0.56538445     0.18000
H875        H  0.37513854  0.73644295  0.61512288     0.18000
F876        F  0.32085361  0.73040649  0.55238397    -0.19800
C877        C  0.13117954  0.60300095  0.63539897    -0.21200
C878        C  0.17101449  0.60484153  0.65910990    -0.09200
C879        C  0.20526056  0.63794019  0.64901446     0.29600
C880        C  0.19982791  0.66803710  0.61509351    -0.21200
C881        C  0.16047256  0.66503840  0.59009114    -0.09300
C882        C  0.12628670  0.63176094  0.60100121     0.29600
F883        F  0.08873079  0.62543778  0.57729018    -0.19800
H884        H  0.10468808  0.57732496  0.64245131     0.18000
H885        H  0.22783427  0.69161581  0.60768139     0.18000
F886        F  0.24478499  0.63978348  0.67082996    -0.19800
C887        C  0.20251629  0.63013572  0.93148810    -0.21200
C888        C  0.16123006  0.65374553  0.93846598    -0.09200
C889        C  0.12392086  0.64744899  0.91208469     0.29600
C890        C  0.12780006  0.61712709  0.87964606    -0.21200
C891        C  0.16902479  0.59307036  0.87307158    -0.09300
C892        C  0.20652266  0.60023902  0.89899469     0.29600
F893        F  0.24671672  0.57755286  0.89322948    -0.19800
H894        H  0.23146803  0.63434025  0.95176245     0.18000
H895        H  0.09846636  0.61168972  0.86006909     0.18000
F896        F  0.08310961  0.66859843  0.91903317    -0.19800
loop_ 
_geom_bond_atom_site_label_1 
_geom_bond_atom_site_label_2 
_geom_bond_distance 
_geom_bond_site_symmetry_2 
_ccdc_geom_bond_type 
O1            V9   1.925   1_455  S
O1          C459   1.269       .  A
O2            V9   1.916       .  S
O2           C12   1.266       .  A
O3            V9   1.897   1_455  S
O3          C461   1.261       .  A
O4            V9   1.905       .  S
O4           C14   1.269       .  A
O5           V10   1.901       .  S
O5          C462   1.262   1_554  A
O6           V10   1.885   1_455  S
O6           C13   1.263   1_554  A
O7           V10   1.863       .  S
O7          C460   1.258   1_554  A
O8           V10   1.885   1_455  S
O8           C11   1.263   1_554  A
V9          V458   2.082       .  T
V10         V457   2.082   1_554  T
C11         O449   1.269       .  A
C11         C510   1.487   1_556  S
C12         O455   1.258       .  A
C12          C26   1.453       .  S
C13         O451   1.261       .  A
C13         C504   1.452       .  S
C14         O453   1.262       .  A
C14         C580   1.480       .  S
O15          V23   1.881   1_545  S
O15         C473   1.265   1_554  A
O16          V23   1.862       .  S
O16         C474   1.258   1_554  A
O17          V23   1.892   1_545  S
O17         C475   1.264   1_554  A
O18          V23   1.914       .  S
O18         C476   1.264   1_554  A
O19          V24   1.898       .  S
O19          C28   1.269       .  A
O20          V24   1.883   1_545  S
O20          C27   1.259       .  A
O21          V24   1.917       .  S
O21          C26   1.267       .  A
O22          V24   1.929   1_545  S
O22          C25   1.269       .  A
V23         V472   2.081   1_554  T
V24         V471   2.081       .  T
C25         O463   1.265       .  A
C25         C233   1.490       .  S
C26         O464   1.258       .  A
C27         O465   1.264       .  A
C27          C40   1.446       .  S
C28         O466   1.264       .  A
C28         C565   1.487       .  S
O29          V37   1.888   1_455  S
O29         C487   1.264       .  A
O30          V37   1.880       .  S
O30         C488   1.258   1_554  A
O31          V37   1.894   1_455  S
O31         C489   1.260       .  A
O32          V37   1.893       .  S
O32         C490   1.266   1_554  A
O33          V38   1.914   1_655  S
O33          C42   1.265       .  A
O34          V38   1.879       .  S
O34          C41   1.262       .  A
O35          V38   1.893   1_655  S
O35          C40   1.263       .  A
O36          V38   1.926       .  S
O36          C39   1.268       .  A
V37         V486   2.089   1_654  T
V38         V485   2.090   1_455  T
C39         O477   1.264       .  A
C39         C153   1.488       .  S
C40         O478   1.258       .  A
C41         O479   1.260       .  A
C41          C53   1.447       .  S
C42         O480   1.266       .  A
C42         C248   1.480       .  S
O43          V51   1.907   1_545  S
O43         C501   1.267       .  A
O44          V51   1.916       .  S
O44         C502   1.268   1_554  A
O45          V51   1.883   1_545  S
O45         C503   1.263       .  A
O46          V51   1.871       .  S
O46         C504   1.257   1_554  A
O47          V52   1.910       .  S
O47          C56   1.267       .  A
O48          V52   1.917   1_545  S
O48          C55   1.267       .  A
O49          V52   1.884       .  S
O49          C54   1.262       .  A
O50          V52   1.866   1_545  S
O50          C53   1.256       .  A
V51         V500   2.083   1_554  T
V52         V499   2.083       .  T
C53         O491   1.267       .  A
C54         O492   1.268       .  A
C54         C522   1.480       .  S
C55         O493   1.263       .  A
C55         C144   1.478       .  S
C56         O494   1.257       .  A
C56         C461   1.453       .  S
C57          C58   1.543       .  S
C57          C63   1.532       .  S
C57          C61   1.534       .  S
C57         C433   1.533       .  S
C58          H65   1.083       .  S
C58         C507   1.369       .  D
C59          C60   1.556       .  S
C59         C506   1.369       .  D
C59         C519   1.495       .  S
C60          C64   1.541       .  S
C60          C62   1.551       .  S
C60          H66   1.111       .  S
C61          H67   1.086       .  S
C61         C510   1.367       .  D
C62         C459   1.488       .  S
C62         C509   1.367       .  D
C63         H516   1.087       .  S
C63         C512   1.361   1_554  D
C64         C440   1.480       .  S
C64         C511   1.362       .  D
H68         C511   1.087       .  S
C69          C70   1.550       .  S
C69          C75   1.535       .  S
C69          C73   1.533       .  S
C69         C410   1.533       .  S
C70          H77   1.083       .  S
C70         C519   1.372       .  D
C71          C72   1.552   1_556  S
C71         C518   1.372       .  D
C71         C507   1.495   1_556  S
C72          C76   1.533       .  S
C72          C74   1.543   1_554  S
C72          H78   1.111       .  S
C73          H79   1.087       .  S
C73         C522   1.364       .  D
C74         C502   1.479       .  S
C74         C521   1.364       .  D
C75         H528   1.087       .  S
C75         C524   1.360       .  D
C76         C420   1.471       .  S
C76         C523   1.360   1_554  D
H80         C523   1.087       .  S
N81          C86   1.355       .  A
N81          C85   1.357       .  A
N81         H113   1.034       .  S
N82          C89   1.352       .  A
N82          C90   1.352       .  A
N83          C88   1.354       .  A
N83          C87   1.353       .  A
N83         H114   1.039       .  S
N84          C91   1.351       .  A
N84          C92   1.353       .  A
C85          C93   1.387       .  A
C85         C101   1.423       .  A
C86         C102   1.423       .  A
C86          C94   1.389       .  A
C87          C95   1.387       .  A
C87         C104   1.415       .  A
C88         C103   1.415       .  A
C88          C96   1.386       .  A
C89         C101   1.416       .  A
C89          C97   1.386       .  A
C90         C104   1.415       .  A
C90          C98   1.386       .  A
C91          C99   1.388       .  A
C91         C102   1.416       .  A
C92         C100   1.384       .  A
C92         C103   1.412       .  A
C93          C94   1.376       .  A
C93         H105   1.082       .  S
C94         H106   1.082       .  S
C95          C96   1.374       .  A
C95         H107   1.082       .  S
C96         H108   1.082       .  S
C97          C98   1.375       .  A
C97         H109   1.082       .  S
C98         H110   1.082       .  S
C99         C100   1.373       .  A
C99         H111   1.082       .  S
C100        H112   1.082       .  S
C101        C390   1.493       .  S
C102        C423   1.486       .  S
C103        C413   1.491       .  S
C104        C403   1.488       .  S
C115        C116   1.520       .  S
C115        C119   1.530       .  S
C115        C569   1.533       .  S
C115        C400   1.540       .  S
C116        H123   1.087       .  S
C116        C565   1.365       .  D
C117        C476   1.488       .  S
C117        C118   1.573   1_556  S
C117        C564   1.365       .  D
C118        C122   1.547       .  S
C118        C120   1.565   1_554  S
C118        H124   1.110       .  S
C119        H125   1.074       .  S
C119        C568   1.376       .  D
C120        C567   1.376       .  D
C120        C129   1.536       .  S
C121        C563   1.533       .  S
C121        H126   1.087       .  S
C121        C122   1.365   1_556  D
C122        C393   1.479       .  S
C127        C128   1.520       .  S
C127        C133   1.528       .  S
C127        C131   1.528       .  S
C127        C370   1.530       .  S
C128        H135   1.082       .  S
C128        C577   1.369       .  D
C129        C130   1.571   1_556  S
C129        C576   1.369       .  D
C130        C134   1.569       .  S
C130        C132   1.554   1_554  S
C130        H136   1.110       .  S
C131        H137   1.087       .  S
C131        C580   1.359       .  D
C132        C462   1.479       .  S
C132        C579   1.358       .  D
C133        H586   1.086       .  S
C133        C582   1.372       .  D
C134        C380   1.491       .  S
C134        C581   1.372       .  D
H138        C581   1.086       .  S
C139        C140   1.519       .  S
C139        C145   1.528       .  S
C139        C143   1.524       .  S
C139        C353   1.531       .  S
C140        H147   1.077       .  S
C140        C589   1.370       .  D
C141        C142   1.571       .  S
C141        C588   1.369       .  D
C141        C156   1.533       .  S
C142        C146   1.562       .  S
C142        C144   1.551       .  S
C142        H148   1.110       .  S
C143        H149   1.087       .  S
C143        C592   1.362       .  D
C144        C591   1.362       .  D
C145        H598   1.087       .  S
C145        C594   1.370   1_554  D
C146        C363   1.481       .  S
C146        C593   1.369       .  D
H150        C593   1.087       .  S
C151        C152   1.529       .  S
C151        C155   1.521       .  S
C151        C605   1.528       .  S
C151        C340   1.538       .  S
C152        H159   1.082       .  S
C152        C601   1.366       .  D
C153        C154   1.570       .  S
C153        C600   1.366       .  D
C154        C158   1.549       .  S
C154        C156   1.566       .  S
C154        H160   1.110       .  S
C155        H161   1.082       .  S
C155        C604   1.378       .  D
C156        C603   1.378       .  D
C157        C599   1.528       .  S
C157        H162   1.087       .  S
C157        C158   1.365       .  D
C158        C330   1.481       .  S
N163        C168   1.359       .  A
N163        C167   1.358       .  A
N163        H195   1.037       .  S
N164        C171   1.352       .  A
N164        C172   1.352       .  A
N165        C170   1.356       .  A
N165        C169   1.357       .  A
N165        H196   1.035       .  S
N166        C173   1.351       .  A
N166        C174   1.352       .  A
C167        C175   1.388       .  A
C167        C183   1.425       .  A
C168        C184   1.424       .  A
C168        C176   1.387       .  A
C169        C177   1.387       .  A
C169        C186   1.420       .  A
C170        C185   1.423       .  A
C170        C178   1.388       .  A
C171        C183   1.417       .  A
C171        C179   1.387       .  A
C172        C186   1.416       .  A
C172        C180   1.386       .  A
C173        C181   1.387       .  A
C173        C184   1.416       .  A
C174        C182   1.386       .  A
C174        C185   1.416       .  A
C175        C176   1.373       .  A
C175        H187   1.082       .  S
C176        H188   1.082       .  S
C177        C178   1.370       .  A
C177        H189   1.081       .  S
C178        H190   1.082       .  S
C179        C180   1.373       .  A
C179        H191   1.082       .  S
C180        H192   1.082       .  S
C181        C182   1.373       .  A
C181        H193   1.082       .  S
C182        H194   1.082       .  S
C183        C333   1.494       .  S
C184        C443   1.492       .  S
C185        C430   1.492       .  S
C186        C343   1.490       .  S
N197        C202   1.353       .  A
N197        C201   1.352       .  A
N197        H229   1.041       .  S
N198        C205   1.351       .  A
N198        C206   1.352       .  A
N199        C204   1.355       .  A
N199        C203   1.358       .  A
N199        H230   1.038       .  S
N200        C207   1.353       .  A
N200        C208   1.351       .  A
C201        C209   1.388       .  A
C201        C217   1.414       .  A
C202        C218   1.411       .  A
C202        C210   1.386       .  A
C203        C211   1.388       .  A
C203        C220   1.423       .  A
C204        C219   1.423       .  A
C204        C212   1.387       .  A
C205        C217   1.416       .  A
C205        C213   1.387       .  A
C206        C220   1.414       .  A
C206        C214   1.386       .  A
C207        C215   1.384       .  A
C207        C218   1.411       .  A
C208        C216   1.388       .  A
C208        C219   1.415       .  A
C209        C210   1.372       .  A
C209        H221   1.082       .  S
C210        H222   1.082       .  S
C211        C212   1.378       .  A
C211        H223   1.082       .  S
C212        H224   1.082       .  S
C213        C214   1.375       .  A
C213        H225   1.082       .  S
C214        H226   1.082       .  S
C215        C216   1.375       .  A
C215        H227   1.082       .  S
C216        H228   1.082       .  S
C217        C350   1.491       .  S
C218        C320   1.491       .  S
C219        C310   1.493       .  S
C220        C360   1.495       .  S
C231        C232   1.520       .  S
C231        C235   1.529       .  S
C231        C685   1.527       .  S
C231        C323   1.539       .  S
C232        H239   1.087       .  S
C232        C681   1.365       .  D
C233        C234   1.569       .  S
C233        C680   1.365       .  D
C234        C238   1.550       .  S
C234        C236   1.572       .  S
C234        H240   1.110       .  S
C235        H241   1.074       .  S
C235        C684   1.379       .  D
C236        C683   1.379       .  D
C236        C245   1.539       .  S
C237        C679   1.528       .  S
C237        H242   1.087       .  S
C237        C238   1.365       .  D
C238        C313   1.484       .  S
C243        C244   1.526       .  S
C243        C249   1.524   1_554  S
C243        C247   1.531       .  S
C243        C290   1.536       .  S
C244        H251   1.079       .  S
C244        C693   1.377       .  D
C245        C246   1.574       .  S
C245        C692   1.377       .  D
C246        C250   1.565       .  S
C246        C248   1.561       .  S
C246        H252   1.110       .  S
C247        H253   1.082       .  S
C247        C696   1.354   1_554  D
C248        C695   1.354       .  D
C249        H702   1.087       .  S
C249        C698   1.368       .  D
C250        C300   1.491       .  S
C250        C697   1.368       .  D
H254        C697   1.087       .  S
N255        C260   1.358       .  A
N255        C259   1.354       .  A
N255        H287   1.040       .  S
N256        C263   1.351       .  A
N256        C264   1.356       .  A
N257        C262   1.352       .  A
N257        C261   1.357       .  A
N257        H288   1.036       .  S
N258        C265   1.356       .  A
N258        C266   1.352       .  A
C259        C267   1.388       .  A
C259        C275   1.420       .  A
C260        C276   1.420       .  A
C260        C268   1.386       .  A
C261        C269   1.386       .  A
C261        C278   1.419       .  A
C262        C277   1.418       .  A
C262        C270   1.389       .  A
C263        C275   1.423       .  A
C263        C271   1.390       .  A
C264        C278   1.415       .  A
C264        C272   1.382       .  A
C265        C273   1.383       .  A
C265        C276   1.416       .  A
C266        C274   1.389       .  A
C266        C277   1.422       .  A
C267        C268   1.374       .  A
C267        H279   1.082       .  S
C268        H280   1.081       .  S
C269        C270   1.372       .  A
C269        H281   1.082       .  S
C270        H282   1.081       .  S
C271        C272   1.377       .  A
C271        H283   1.082       .  S
C272        H284   1.082       .  S
C273        C274   1.377       .  A
C273        H285   1.082       .  S
C274        H286   1.082       .  S
C275        C373   1.495       .  S
C276        C303   1.503       .  S
C277        C293   1.482       .  S
C278        C383   1.501       .  S
C289        C290   1.414       .  A
C289        C294   1.393       .  A
C289        H296   1.077       .  S
C290        C291   1.415       .  A
C291        C292   1.400       .  A
C291        F298   1.358       .  S
C292        C293   1.402       .  A
C292        H297   1.083       .  S
C293        C294   1.397       .  A
C294        F295   1.358       .  S
C299        C300   1.406       .  A
C299        C304   1.406       .  A
C299        H306   1.082       .  S
C300        C301   1.408       .  A
C301        C302   1.406       .  A
C301        F308   1.357       .  S
C302        C303   1.406       .  A
C302        H307   1.083       .  S
C303        C304   1.408       .  A
C304        F305   1.357       .  S
C309        C310   1.409       .  A
C309        C314   1.406       .  A
C309        H316   1.083       .  S
C310        C311   1.403       .  A
C311        C312   1.395       .  A
C311        F318   1.358       .  S
C312        C313   1.406       .  A
C312        H317   1.084       .  S
C313        C314   1.404       .  A
C314        F315   1.356       .  S
C319        C320   1.401       .  A
C319        C324   1.397       .  A
C319        H326   1.083       .  S
C320        C321   1.402       .  A
C321        C322   1.401       .  A
C321        F328   1.358       .  S
C322        C323   1.415       .  A
C322        H327   1.077       .  S
C323        C324   1.414       .  A
C324        F325   1.358       .  S
C329        C330   1.405       .  A
C329        C334   1.399       .  A
C329        H336   1.084       .  S
C330        C331   1.404       .  A
C331        C332   1.402       .  A
C331        F338   1.357       .  S
C332        C333   1.406       .  A
C332        H337   1.083       .  S
C333        C334   1.405       .  A
C334        F335   1.358       .  S
C339        C340   1.413       .  A
C339        C344   1.401       .  A
C339        H346   1.077       .  S
C340        C341   1.417       .  A
C341        C342   1.399       .  A
C341        F348   1.358       .  S
C342        C343   1.399       .  A
C342        H347   1.083       .  S
C343        C344   1.402       .  A
C344        F345   1.358       .  S
C349        C350   1.398       .  A
C349        C354   1.393       .  A
C349        H356   1.083       .  S
C350        C351   1.407       .  A
C351        C352   1.399       .  A
C351        F358   1.357       .  S
C352        C353   1.408       .  A
C352        H357   1.083       .  S
C353        C354   1.420       .  A
C354        F355   1.356       .  S
C359        C360   1.406       .  A
C359        C364   1.404       .  A
C359        H366   1.083       .  S
C360        C361   1.406       .  A
C361        C362   1.402       .  A
C361        F368   1.357       .  S
C362        C363   1.404       .  A
C362        H367   1.084       .  S
C363        C364   1.405       .  A
C364        F365   1.357       .  S
C369        C370   1.409       .  A
C369        C374   1.402       .  A
C369        H376   1.082       .  S
C370        C371   1.420       .  A
C371        C372   1.390       .  A
C371        F378   1.356       .  S
C372        C373   1.398       .  A
C372        H377   1.084       .  S
C373        C374   1.409       .  A
C374        F375   1.357       .  S
C379        C380   1.406       .  A
C379        C384   1.402       .  A
C379        H386   1.084       .  S
C380        C381   1.407       .  A
C381        C382   1.410       .  A
C381        F388   1.357       .  S
C382        C383   1.408       .  A
C382        H387   1.083       .  S
C383        C384   1.406       .  A
C384        F385   1.357       .  S
C389        C390   1.405       .  A
C389        C394   1.403       .  A
C389        H396   1.083       .  S
C390        C391   1.405       .  A
C391        C392   1.402       .  A
C391        F398   1.357       .  S
C392        C393   1.404       .  A
C392        H397   1.083       .  S
C393        C394   1.405       .  A
C394        F395   1.357       .  S
C399        C400   1.417       .  A
C399        C404   1.397       .  A
C399        H406   1.075       .  S
C400        C401   1.414       .  A
C401        C402   1.400       .  A
C401        F408   1.358       .  S
C402        C403   1.402       .  A
C402        H407   1.083       .  S
C403        C404   1.399       .  A
C404        F405   1.358       .  S
C409        C410   1.412       .  A
C409        C414   1.405       .  A
C409        H416   1.078       .  S
C410        C411   1.415       .  A
C411        C412   1.394       .  A
C411        F418   1.358       .  S
C412        C413   1.399       .  A
C412        H417   1.084       .  S
C413        C414   1.406       .  A
C414        F415   1.357       .  S
C419        C420   1.401       .  A
C419        C424   1.398       .  A
C419        H426   1.084       .  S
C420        C421   1.404       .  A
C421        C422   1.398       .  A
C421        F428   1.358       .  S
C422        C423   1.404       .  A
C422        H427   1.083       .  S
C423        C424   1.405       .  A
C424        F425   1.357       .  S
C429        C430   1.399       .  A
C429        C434   1.392       .  A
C429        H436   1.084       .  S
C430        C431   1.405       .  A
C431        C432   1.405       .  A
C431        F438   1.357       .  S
C432        C433   1.414       .  A
C432        H437   1.078       .  S
C433        C434   1.414       .  A
C434        F435   1.358       .  S
C439        C440   1.404       .  A
C439        C444   1.398       .  A
C439        H446   1.083       .  S
C440        C441   1.405       .  A
C441        C442   1.404       .  A
C441        F448   1.357       .  S
C442        C443   1.407       .  A
C442        H447   1.083       .  S
C443        C444   1.404       .  A
C444        F445   1.357       .  S
O449        V457   1.925   1_455  S
O450        V457   1.917       .  S
O450        C460   1.267       .  A
O451        V457   1.897   1_455  S
O452        V457   1.904       .  S
O452        C462   1.269       .  A
O453        V458   1.902       .  S
O454        V458   1.886   1_455  S
O454        C461   1.264       .  A
O455        V458   1.863       .  S
O456        V458   1.886   1_455  S
O456        C459   1.263       .  A
C460        C474   1.453       .  S
O463        V471   1.881   1_545  S
O464        V471   1.862       .  S
O465        V471   1.892   1_545  S
O466        V471   1.914       .  S
O467        V472   1.898       .  S
O467        C476   1.270       .  A
O468        V472   1.884   1_545  S
O468        C475   1.259       .  A
O469        V472   1.917       .  S
O469        C474   1.267       .  A
O470        V472   1.929   1_545  S
O470        C473   1.269       .  A
C473        C681   1.490   1_556  S
C475        C488   1.446       .  S
O477        V485   1.888   1_455  S
O478        V485   1.880       .  S
O479        V485   1.894   1_455  S
O480        V485   1.893       .  S
O481        V486   1.914   1_655  S
O481        C490   1.265       .  A
O482        V486   1.879       .  S
O482        C489   1.262   1_556  A
O483        V486   1.894   1_655  S
O483        C488   1.264       .  A
O484        V486   1.927       .  S
O484        C487   1.269   1_556  A
C487        C601   1.490       .  S
C489        C501   1.446       .  S
C490        C696   1.480       .  S
O491        V499   1.908   1_545  S
O492        V499   1.916       .  S
O493        V499   1.885   1_545  S
O494        V499   1.873       .  S
O495        V500   1.910       .  S
O495        C504   1.267       .  A
O496        V500   1.917   1_545  S
O496        C503   1.267   1_556  A
O497        V500   1.884       .  S
O497        C502   1.262       .  A
O498        V500   1.866   1_545  S
O498        C501   1.256   1_556  A
C503        C592   1.478       .  S
C505        C506   1.543       .  S
C505        C511   1.533       .  S
C505        C509   1.534       .  S
C505        C881   1.533       .  S
C506        H513   1.083       .  S
C507        C508   1.556   1_554  S
C508        C512   1.541       .  S
C508        C510   1.551   1_556  S
C508        H514   1.111       .  S
C509        H515   1.086       .  S
C512        C888   1.480       .  S
C517        C518   1.550       .  S
C517        C523   1.535       .  S
C517        C521   1.533       .  S
C517        C858   1.532       .  S
C518        H525   1.083       .  S
C519        C520   1.552       .  S
C520        C524   1.533       .  S
C520        C522   1.543       .  S
C520        H526   1.111       .  S
C521        H527   1.087       .  S
C524        C868   1.471       .  S
N529        C534   1.355       .  A
N529        C533   1.357       .  A
N529        H561   1.034       .  S
N530        C537   1.352       .  A
N530        C538   1.352       .  A
N531        C536   1.354       .  A
N531        C535   1.352       .  A
N531        H562   1.039       .  S
N532        C539   1.351       .  A
N532        C540   1.352       .  A
C533        C541   1.387       .  A
C533        C549   1.422       .  A
C534        C550   1.423       .  A
C534        C542   1.389       .  A
C535        C543   1.388       .  A
C535        C552   1.415       .  A
C536        C551   1.415       .  A
C536        C544   1.386       .  A
C537        C549   1.416       .  A
C537        C545   1.386       .  A
C538        C552   1.415       .  A
C538        C546   1.386       .  A
C539        C547   1.388       .  A
C539        C550   1.416       .  A
C540        C548   1.384       .  A
C540        C551   1.412       .  A
C541        C542   1.376       .  A
C541        H553   1.082       .  S
C542        H554   1.082       .  S
C543        C544   1.374       .  A
C543        H555   1.082       .  S
C544        H556   1.082       .  S
C545        C546   1.375       .  A
C545        H557   1.082       .  S
C546        H558   1.082       .  S
C547        C548   1.373       .  A
C547        H559   1.082       .  S
C548        H560   1.082       .  S
C549        C838   1.492       .  S
C550        C871   1.485       .  S
C551        C861   1.490       .  S
C552        C851   1.488       .  S
C563        C564   1.520       .  S
C563        C567   1.530       .  S
C563        C848   1.539       .  S
C564        H571   1.087       .  S
C565        C566   1.572       .  S
C566        C570   1.547       .  S
C566        C568   1.564       .  S
C566        H572   1.110       .  S
C567        H573   1.074       .  S
C568        C577   1.537       .  S
C569        H574   1.087       .  S
C569        C570   1.365       .  D
C570        C841   1.479       .  S
C575        C576   1.521       .  S
C575        C581   1.528   1_556  S
C575        C579   1.528       .  S
C575        C818   1.530       .  S
C576        H583   1.082       .  S
C577        C578   1.572       .  S
C578        C582   1.569       .  S
C578        C580   1.554       .  S
C578        H584   1.110       .  S
C579        H585   1.087       .  S
C582        C828   1.492       .  S
C587        C588   1.519       .  S
C587        C593   1.529       .  S
C587        C591   1.525       .  S
C587        C801   1.531       .  S
C588        H595   1.077       .  S
C589        C590   1.572   1_554  S
C589        C604   1.534       .  S
C590        C594   1.563       .  S
C590        C592   1.551   1_556  S
C590        H596   1.110       .  S
C591        H597   1.087       .  S
C594        C811   1.484       .  S
C599        C600   1.528       .  S
C599        C603   1.521       .  S
C599        C788   1.537       .  S
C600        H607   1.082       .  S
C601        C602   1.570   1_554  S
C602        C606   1.549       .  S
C602        C604   1.566   1_556  S
C602        H608   1.110       .  S
C603        H609   1.082       .  S
C605        H610   1.087       .  S
C605        C606   1.365   1_554  D
C606        C778   1.480       .  S
N611        C616   1.359       .  A
N611        C615   1.358       .  A
N611        H643   1.037       .  S
N612        C619   1.352       .  A
N612        C620   1.352       .  A
N613        C618   1.356       .  A
N613        C617   1.356       .  A
N613        H644   1.035       .  S
N614        C621   1.351       .  A
N614        C622   1.352       .  A
C615        C623   1.388       .  A
C615        C631   1.424       .  A
C616        C632   1.424       .  A
C616        C624   1.387       .  A
C617        C625   1.387       .  A
C617        C634   1.420       .  A
C618        C633   1.423       .  A
C618        C626   1.388       .  A
C619        C631   1.416       .  A
C619        C627   1.387       .  A
C620        C634   1.416       .  A
C620        C628   1.386       .  A
C621        C629   1.387       .  A
C621        C632   1.417       .  A
C622        C630   1.386       .  A
C622        C633   1.416       .  A
C623        C624   1.373       .  A
C623        H635   1.082       .  S
C624        H636   1.082       .  S
C625        C626   1.370       .  A
C625        H637   1.081       .  S
C626        H638   1.082       .  S
C627        C628   1.373       .  A
C627        H639   1.082       .  S
C628        H640   1.082       .  S
C629        C630   1.372       .  A
C629        H641   1.082       .  S
C630        H642   1.082       .  S
C631        C781   1.493       .  S
C632        C891   1.492       .  S
C633        C878   1.493       .  S
C634        C791   1.489       .  S
N645        C650   1.353       .  A
N645        C649   1.352       .  A
N645        H677   1.041       .  S
N646        C653   1.351       .  A
N646        C654   1.352       .  A
N647        C652   1.355       .  A
N647        C651   1.357       .  A
N647        H678   1.038       .  S
N648        C655   1.353       .  A
N648        C656   1.351       .  A
C649        C657   1.388       .  A
C649        C665   1.414       .  A
C650        C666   1.412       .  A
C650        C658   1.386       .  A
C651        C659   1.386       .  A
C651        C668   1.421       .  A
C652        C667   1.423       .  A
C652        C660   1.388       .  A
C653        C665   1.416       .  A
C653        C661   1.387       .  A
C654        C668   1.412       .  A
C654        C662   1.385       .  A
C655        C663   1.384       .  A
C655        C666   1.412       .  A
C656        C664   1.388       .  A
C656        C667   1.415       .  A
C657        C658   1.373       .  A
C657        H669   1.082       .  S
C658        H670   1.082       .  S
C659        C660   1.379       .  A
C659        H671   1.082       .  S
C660        H672   1.082       .  S
C661        C662   1.375       .  A
C661        H673   1.082       .  S
C662        H674   1.082       .  S
C663        C664   1.375       .  A
C663        H675   1.082       .  S
C664        H676   1.082       .  S
C665        C798   1.491       .  S
C666        C768   1.491       .  S
C667        C758   1.493       .  S
C668        C808   1.493       .  S
C679        C680   1.519       .  S
C679        C683   1.530       .  S
C679        C771   1.539       .  S
C680        H687   1.087       .  S
C681        C682   1.569   1_554  S
C682        C686   1.551       .  S
C682        C684   1.573   1_556  S
C682        H688   1.110       .  S
C683        H689   1.074       .  S
C684        C693   1.539       .  S
C685        H690   1.087       .  S
C685        C686   1.365   1_554  D
C686        C761   1.485       .  S
C691        C692   1.526       .  S
C691        C697   1.523       .  S
C691        C695   1.532       .  S
C691        C738   1.536       .  S
C692        H699   1.079       .  S
C693        C694   1.574   1_554  S
C694        C698   1.565       .  S
C694        C696   1.562       .  S
C694        H700   1.110       .  S
C695        H701   1.082       .  S
C698        C748   1.491       .  S
N703        C708   1.358       .  A
N703        C707   1.354       .  A
N703        H735   1.040       .  S
N704        C711   1.350       .  A
N704        C712   1.356       .  A
N705        C710   1.352       .  A
N705        C709   1.358       .  A
N705        H736   1.036       .  S
N706        C713   1.357       .  A
N706        C714   1.352       .  A
C707        C715   1.388       .  A
C707        C723   1.421       .  A
C708        C724   1.420       .  A
C708        C716   1.386       .  A
C709        C717   1.386       .  A
C709        C726   1.419       .  A
C710        C725   1.418       .  A
C710        C718   1.389       .  A
C711        C723   1.423       .  A
C711        C719   1.390       .  A
C712        C726   1.415       .  A
C712        C720   1.382       .  A
C713        C721   1.383       .  A
C713        C724   1.416       .  A
C714        C722   1.389       .  A
C714        C725   1.422       .  A
C715        C716   1.374       .  A
C715        H727   1.082       .  S
C716        H728   1.081       .  S
C717        C718   1.372       .  A
C717        H729   1.082       .  S
C718        H730   1.081       .  S
C719        C720   1.377       .  A
C719        H731   1.082       .  S
C720        H732   1.082       .  S
C721        C722   1.377       .  A
C721        H733   1.082       .  S
C722        H734   1.082       .  S
C723        C821   1.495       .  S
C724        C751   1.503       .  S
C725        C741   1.482       .  S
C726        C831   1.501       .  S
C737        C738   1.413       .  A
C737        C742   1.393       .  A
C737        H744   1.077       .  S
C738        C739   1.415       .  A
C739        C740   1.400       .  A
C739        F746   1.358       .  S
C740        C741   1.402       .  A
C740        H745   1.083       .  S
C741        C742   1.397       .  A
C742        F743   1.358       .  S
C747        C748   1.406       .  A
C747        C752   1.406       .  A
C747        H754   1.083       .  S
C748        C749   1.408       .  A
C749        C750   1.407       .  A
C749        F756   1.357       .  S
C750        C751   1.406       .  A
C750        H755   1.083       .  S
C751        C752   1.408       .  A
C752        F753   1.357       .  S
C757        C758   1.409       .  A
C757        C762   1.407       .  A
C757        H764   1.083       .  S
C758        C759   1.403       .  A
C759        C760   1.395       .  A
C759        F766   1.358       .  S
C760        C761   1.406       .  A
C760        H765   1.084       .  S
C761        C762   1.404       .  A
C762        F763   1.356       .  S
C767        C768   1.402       .  A
C767        C772   1.398       .  A
C767        H774   1.083       .  S
C768        C769   1.402       .  A
C769        C770   1.401       .  A
C769        F776   1.358       .  S
C770        C771   1.415       .  A
C770        H775   1.076       .  S
C771        C772   1.414       .  A
C772        F773   1.358       .  S
C777        C778   1.405       .  A
C777        C782   1.399       .  A
C777        H784   1.084       .  S
C778        C779   1.404       .  A
C779        C780   1.402       .  A
C779        F786   1.357       .  S
C780        C781   1.406       .  A
C780        H785   1.083       .  S
C781        C782   1.405       .  A
C782        F783   1.357       .  S
C787        C788   1.412       .  A
C787        C792   1.400       .  A
C787        H794   1.077       .  S
C788        C789   1.417       .  A
C789        C790   1.398       .  A
C789        F796   1.358       .  S
C790        C791   1.399       .  A
C790        H795   1.083       .  S
C791        C792   1.402       .  A
C792        F793   1.358       .  S
C797        C798   1.398       .  A
C797        C802   1.392       .  A
C797        H804   1.083       .  S
C798        C799   1.408       .  A
C799        C800   1.399       .  A
C799        F806   1.357       .  S
C800        C801   1.407       .  A
C800        H805   1.083       .  S
C801        C802   1.421       .  A
C802        F803   1.356       .  S
C807        C808   1.407       .  A
C807        C812   1.407       .  A
C807        H814   1.083       .  S
C808        C809   1.403       .  A
C809        C810   1.399       .  A
C809        F816   1.357       .  S
C810        C811   1.406       .  A
C810        H815   1.084       .  S
C811        C812   1.405       .  A
C812        F813   1.357       .  S
C817        C818   1.409       .  A
C817        C822   1.402       .  A
C817        H824   1.082       .  S
C818        C819   1.419       .  A
C819        C820   1.390       .  A
C819        F826   1.356       .  S
C820        C821   1.398       .  A
C820        H825   1.084       .  S
C821        C822   1.409       .  A
C822        F823   1.357       .  S
C827        C828   1.407       .  A
C827        C832   1.402       .  A
C827        H834   1.084       .  S
C828        C829   1.407       .  A
C829        C830   1.410       .  A
C829        F836   1.357       .  S
C830        C831   1.408       .  A
C830        H835   1.083       .  S
C831        C832   1.406       .  A
C832        F833   1.357       .  S
C837        C838   1.405       .  A
C837        C842   1.402       .  A
C837        H844   1.083       .  S
C838        C839   1.405       .  A
C839        C840   1.401       .  A
C839        F846   1.357       .  S
C840        C841   1.403       .  A
C840        H845   1.083       .  S
C841        C842   1.404       .  A
C842        F843   1.357       .  S
C847        C848   1.417       .  A
C847        C852   1.396       .  A
C847        H854   1.074       .  S
C848        C849   1.414       .  A
C849        C850   1.400       .  A
C849        F856   1.358       .  S
C850        C851   1.402       .  A
C850        H855   1.083       .  S
C851        C852   1.399       .  A
C852        F853   1.358       .  S
C857        C858   1.412       .  A
C857        C862   1.404       .  A
C857        H864   1.078       .  S
C858        C859   1.415       .  A
C859        C860   1.393       .  A
C859        F866   1.358       .  S
C860        C861   1.399       .  A
C860        H865   1.084       .  S
C861        C862   1.405       .  A
C862        F863   1.357       .  S
C867        C868   1.401       .  A
C867        C872   1.398       .  A
C867        H874   1.084       .  S
C868        C869   1.404       .  A
C869        C870   1.398       .  A
C869        F876   1.358       .  S
C870        C871   1.404       .  A
C870        H875   1.083       .  S
C871        C872   1.405       .  A
C872        F873   1.357       .  S
C877        C878   1.399       .  A
C877        C882   1.393       .  A
C877        H884   1.084       .  S
C878        C879   1.405       .  A
C879        C880   1.405       .  A
C879        F886   1.357       .  S
C880        C881   1.414       .  A
C880        H885   1.078       .  S
C881        C882   1.414       .  A
C882        F883   1.358       .  S
C887        C888   1.404       .  A
C887        C892   1.397       .  A
C887        H894   1.083       .  S
C888        C889   1.405       .  A
C889        C890   1.404       .  A
C889        F896   1.357       .  S
C890        C891   1.407       .  A
C890        H895   1.083       .  S
C891        C892   1.403       .  A
C892        F893   1.357       .  S
