geometry optimzed in LAMMPS
_audit_creation_date              2020-11-30 
_audit_creation_method            'lammps2cif' 
_symmetry_space_group_name_H-M    'P1' 
_symmetry_Int_Tables_number       1 
_symmetry_cell_setting            triclinic 
loop_ 
_symmetry_equiv_pos_as_xyz 
  x,y,z 
_cell_length_a                    60.64324408 
_cell_length_b                    60.603340372855605 
_cell_length_c                    60.620521923746466 
_cell_angle_alpha                 90.0564234359404 
_cell_angle_beta                  90.00338556353093 
_cell_angle_gamma                 90.05791750850912 
loop_ 
_atom_site_label 
_atom_site_type_symbol 
_atom_site_fract_x 
_atom_site_fract_y 
_atom_site_fract_z 
_atom_site_charge 
O1          O  0.13068020  0.09246597  0.39419153    -0.71500
O2          O  0.12887624  0.15522279  0.39256014    -0.71700
O3          O  0.09862181  0.12305857  0.39291210    -0.71600
O4          O  0.16101527  0.12488185  0.39399487    -0.71600
O5          O  0.16177615  0.12347072  0.35829840    -0.71600
O6          O  0.09917434  0.12250449  0.35709383    -0.71600
O7          O  0.13021002  0.15417301  0.35677249    -0.71500
O8          O  0.13075985  0.09168491  0.35840027    -0.71700
V9          V  0.12982679  0.12385412  0.39272995     1.35200
V10         V  0.13047369  0.12294823  0.35833729     1.35200
C11         C  0.13059864  0.08136968  0.37648920     0.77700
C12         C  0.12949044  0.16536137  0.37433719     0.77800
C13         C  0.08824637  0.12282981  0.37485919     0.77600
C14         C  0.17211751  0.12478783  0.37638839     0.77600
O15         O  0.12543518  0.84169267  0.39316666    -0.71500
O16         O  0.12590277  0.90425760  0.39370623    -0.71700
O17         O  0.09428993  0.87311739  0.39378627    -0.71600
O18         O  0.15682951  0.87270155  0.39295843    -0.71600
O19         O  0.15645201  0.87247065  0.35725273    -0.71600
O20         O  0.09387907  0.87378950  0.35804574    -0.71600
O21         O  0.12605668  0.90451935  0.35791082    -0.71500
O22         O  0.12456678  0.84179203  0.35741109    -0.71700
V23         V  0.12556884  0.87295580  0.39270463     1.35200
V24         V  0.12518580  0.87315882  0.35833028     1.35200
C25         C  0.12529606  0.83102065  0.37526603     0.77700
C26         C  0.12662619  0.91507836  0.37590843     0.77800
C27         C  0.08334337  0.87337645  0.37602695     0.77600
C28         C  0.16740107  0.87238955  0.37501515     0.77600
O29         O  0.88164424  0.15486458  0.38836706    -0.71500
O30         O  0.87980301  0.09232313  0.38963124    -0.71700
O31         O  0.91196983  0.12270161  0.38894911    -0.71600
O32         O  0.84946063  0.12433080  0.38909452    -0.71600
O33         O  0.84938374  0.12107432  0.35343124    -0.71600
O34         O  0.91190414  0.12445720  0.35318201    -0.71600
O35         O  0.88233759  0.09157096  0.35388302    -0.71500
O36         O  0.87908158  0.15411993  0.35266455    -0.71700
V37         V  0.88072308  0.12356812  0.38833608     1.35200
V38         V  0.88066065  0.12284698  0.35394965     1.35200
C39         C  0.88023696  0.16519335  0.37030747     0.77700
C40         C  0.88125375  0.08130499  0.37198383     0.77800
C41         C  0.92261294  0.12370988  0.37104883     0.77600
C42         C  0.83874285  0.12217228  0.37133535     0.77600
O43         O  0.90673099  0.87216556  0.39832011    -0.71500
O44         O  0.84423946  0.87464950  0.39824824    -0.71700
O45         O  0.87429845  0.84210683  0.39849829    -0.71600
O46         O  0.87678737  0.90477804  0.39789947    -0.71600
O47         O  0.87548649  0.90436096  0.36218937    -0.71600
O48         O  0.87554511  0.84182009  0.36281008    -0.71600
O49         O  0.84411362  0.87302401  0.36257232    -0.71500
O50         O  0.90676830  0.87333806  0.36249324    -0.71700
V51         V  0.87548874  0.87342892  0.39756297     1.35200
V52         V  0.87545725  0.87311670  0.36319825     1.35200
C53         C  0.91738113  0.87259126  0.38042286     0.77700
C54         C  0.83340332  0.87397355  0.38047123     0.77800
C55         C  0.87485123  0.83117825  0.38074362     0.77600
C56         C  0.87662856  0.91531794  0.37991106     0.77600
O57         O  0.14023743  0.40471969  0.37562905    -0.71500
O58         O  0.14087821  0.34227026  0.37313291    -0.71700
O59         O  0.13863439  0.37475299  0.34314682    -0.71600
O60         O  0.14222814  0.37219748  0.40575477    -0.71600
O61         O  0.10650192  0.37129743  0.40751907    -0.71600
O62         O  0.10296474  0.37461377  0.34525762    -0.71600
O63         O  0.10514400  0.34169895  0.37467831    -0.71500
O64         O  0.10450362  0.40437081  0.37775999    -0.71700
V65         V  0.13980783  0.37348768  0.37446804     1.35200
V66         V  0.10547391  0.37302131  0.37632097     1.35200
C67         C  0.12231690  0.41522876  0.37689102     0.77700
C68         C  0.12315086  0.33129374  0.37325220     0.77800
C69         C  0.12011499  0.37513373  0.33349882     0.77600
C70         C  0.12490447  0.37104715  0.41731491     0.77600
O71         O  0.13693635  0.40512896  0.62186560    -0.71500
O72         O  0.13881445  0.34257835  0.62783911    -0.71700
O73         O  0.13784716  0.37083109  0.59384529    -0.71600
O74         O  0.13820968  0.37696185  0.65604799    -0.71600
O75         O  0.10255125  0.37474521  0.65663357    -0.71600
O76         O  0.10207027  0.37105514  0.59396296    -0.71600
O77         O  0.10307767  0.34164886  0.62696320    -0.71500
O78         O  0.10119193  0.40406464  0.62357409    -0.71700
V79         V  0.13727030  0.37385626  0.62494387     1.35200
V80         V  0.10291166  0.37287681  0.62529260     1.35200
C81         C  0.11868623  0.41524982  0.62180359     0.77700
C82         C  0.12116859  0.33138246  0.62772391     0.77800
C83         C  0.11993825  0.37024723  0.58321771     0.77600
C84         C  0.12049890  0.37690552  0.66705178     0.77600
O85         O  0.14324475  0.62252986  0.40620273    -0.71500
O86         O  0.14240805  0.62321025  0.34347124    -0.71700
O87         O  0.14313357  0.65420569  0.37511934    -0.71600
O88         O  0.14260122  0.59155812  0.37426331    -0.71600
O89         O  0.10681852  0.59186125  0.37528917    -0.71600
O90         O  0.10733740  0.65437688  0.37525786    -0.71600
O91         O  0.10670888  0.62299931  0.34400104    -0.71500
O92         O  0.10747846  0.62329020  0.40652841    -0.71700
V93         V  0.14217627  0.62287512  0.37480584     1.35200
V94         V  0.10779477  0.62311859  0.37526446     1.35200
C95         C  0.12545078  0.62293847  0.41708866     0.77700
C96         C  0.12436643  0.62314408  0.33296777     0.77800
C97         C  0.12528299  0.66496747  0.37537838     0.77600
C98         C  0.12459514  0.58104487  0.37434981     0.77600
O99         O  0.09897995  0.59259740  0.62352425    -0.71500
O100        O  0.10046352  0.65520431  0.62613937    -0.71700
O101        O  0.10027105  0.62494435  0.59341904    -0.71600
O102        O  0.09934174  0.62283451  0.65621124    -0.71600
O103        O  0.13500468  0.62110934  0.65647848    -0.71600
O104        O  0.13608253  0.62528902  0.59416516    -0.71600
O105        O  0.13613301  0.65435568  0.62760237    -0.71500
O106        O  0.13475750  0.59180460  0.62324173    -0.71700
V107        V  0.10043361  0.62387543  0.62482288     1.35200
V108        V  0.13479005  0.62312518  0.62533507     1.35200
C109        C  0.11659756  0.58151297  0.62265747     0.77700
C110        C  0.11855196  0.66552618  0.62767410     0.77800
C111        C  0.11841825  0.62569757  0.58314046     0.77600
C112        C  0.11708942  0.62172883  0.66711557     0.77600
O113        O  0.63050041  0.13850001  0.40646620    -0.71500
O114        O  0.63180941  0.14081499  0.34403692    -0.71700
O115        O  0.59985695  0.14063077  0.37469099    -0.71600
O116        O  0.66247379  0.13856740  0.37574949    -0.71600
O117        O  0.66130647  0.10286140  0.37365715    -0.71600
O118        O  0.59872819  0.10482863  0.37433083    -0.71600
O119        O  0.62986091  0.10511315  0.34261403    -0.71500
O120        O  0.63023861  0.10272092  0.40526791    -0.71700
V121        V  0.63114504  0.13893053  0.37522075     1.35200
V122        V  0.63004634  0.10456235  0.37396727     1.35200
C123        C  0.63025507  0.12026297  0.41656819     0.77700
C124        C  0.63113566  0.12337538  0.33261575     0.77800
C125        C  0.58860720  0.12304658  0.37475633     0.77600
C126        C  0.67261027  0.12034916  0.37476487     0.77600
O127        O  0.63078819  0.14225023  0.59289677    -0.71500
O128        O  0.62971608  0.14321127  0.65553997    -0.71700
O129        O  0.66137554  0.14291911  0.62487812    -0.71600
O130        O  0.59882460  0.14251845  0.62341367    -0.71600
O131        O  0.59903721  0.10670934  0.62502409    -0.71600
O132        O  0.66158918  0.10719779  0.62454827    -0.71600
O133        O  0.63058653  0.10739172  0.65604652    -0.71500
O134        O  0.62989460  0.10642597  0.59344732    -0.71700
V135        V  0.63013803  0.14203923  0.62420663     1.35200
V136        V  0.63028342  0.10762434  0.62474275     1.35200
C137        C  0.63039099  0.12416541  0.58250886     0.77700
C138        C  0.63051011  0.12546458  0.66646478     0.77800
C139        C  0.67224312  0.12516511  0.62496911     0.77600
C140        C  0.58828508  0.12451707  0.62386526     0.77600
O141        O  0.34943552  0.10999657  0.37278220    -0.71500
O142        O  0.41189215  0.11096653  0.37385667    -0.71700
O143        O  0.38001157  0.10900832  0.40457219    -0.71600
O144        O  0.38122322  0.11201834  0.34204795    -0.71600
O145        O  0.37870339  0.14773879  0.34378555    -0.71600
O146        O  0.38126000  0.14477902  0.40625899    -0.71600
O147        O  0.41140496  0.14676854  0.37396953    -0.71500
O148        O  0.34874861  0.14555245  0.37626516    -0.71700
V149        V  0.38064145  0.11118765  0.37333696     1.35200
V150        V  0.38006596  0.14554519  0.37501217     1.35200
C151        C  0.33834026  0.12749060  0.37480566     0.77700
C152        C  0.42235862  0.12901328  0.37402997     0.77800
C153        C  0.38050724  0.12640649  0.41607189     0.77600
C154        C  0.37981837  0.13037698  0.33227957     0.77600
O155        O  0.34849691  0.10479123  0.62266942    -0.71500
O156        O  0.41099064  0.10328924  0.62461716    -0.71700
O157        O  0.37862461  0.10366454  0.65495159    -0.71600
O158        O  0.38077135  0.10437265  0.59243144    -0.71600
O159        O  0.38081891  0.14017781  0.59288211    -0.71600
O160        O  0.38023789  0.13938209  0.65553653    -0.71600
O161        O  0.41184418  0.13903841  0.62438195    -0.71500
O162        O  0.34938698  0.14056514  0.62397717    -0.71700
V163        V  0.37974695  0.10471932  0.62369318     1.35200
V164        V  0.38057872  0.13910690  0.62418868     1.35200
C165        C  0.33827575  0.12295032  0.62332024     0.77700
C166        C  0.42214426  0.12090180  0.62440247     0.77800
C167        C  0.37908363  0.12135078  0.66598704     0.77600
C168        C  0.38111301  0.12238139  0.58196855     0.77600
O169        O  0.88875522  0.62040955  0.40243810    -0.71500
O170        O  0.88665475  0.62406266  0.34000155    -0.71700
O171        O  0.88836048  0.65361458  0.37303741    -0.71600
O172        O  0.88695558  0.59099632  0.36923433    -0.71600
O173        O  0.85129522  0.59175008  0.37274004    -0.71600
O174        O  0.85268452  0.65426489  0.37223673    -0.71600
O175        O  0.85093128  0.62281200  0.34111111    -0.71500
O176        O  0.85308545  0.62337430  0.40371139    -0.71700
V177        V  0.88702003  0.62229170  0.37120916     1.35200
V178        V  0.85267906  0.62301545  0.37240696     1.35200
C179        C  0.87127794  0.62162226  0.41373217     0.77700
C180        C  0.86844263  0.62379179  0.32984845     0.77800
C181        C  0.87067709  0.66471849  0.37303874     0.77600
C182        C  0.86886245  0.58073783  0.37077529     0.77600
O183        O  0.89171096  0.62260897  0.59020868    -0.71500
O184        O  0.89275570  0.61881304  0.65262697    -0.71700
O185        O  0.89185672  0.58945466  0.61944867    -0.71600
O186        O  0.89254810  0.65194427  0.62337956    -0.71600
O187        O  0.85684755  0.65235013  0.62268291    -0.71600
O188        O  0.85612167  0.58973779  0.62160584    -0.71600
O189        O  0.85711580  0.62050622  0.65346823    -0.71500
O190        O  0.85594286  0.62147933  0.59070124    -0.71700
V191        V  0.89152217  0.62070606  0.62142856     1.35200
V192        V  0.85717160  0.62102017  0.62208337     1.35200
C193        C  0.87369054  0.62251585  0.57976035     0.77700
C194        C  0.87521086  0.61933607  0.66382781     0.77800
C195        C  0.87386701  0.57893236  0.62001995     0.77600
C196        C  0.87484626  0.66290595  0.62351021     0.77600
O197        O  0.85486734  0.37338606  0.40736942    -0.71500
O198        O  0.85173214  0.37110302  0.34494196    -0.71700
O199        O  0.85485242  0.34103184  0.37705140    -0.71600
O200        O  0.85182037  0.40360834  0.37483149    -0.71600
O201        O  0.88752737  0.40520102  0.37310920    -0.71600
O202        O  0.89049107  0.34275268  0.37521817    -0.71600
O203        O  0.88736186  0.37282117  0.34305506    -0.71500
O204        O  0.89056467  0.37516152  0.40556233    -0.71700
V205        V  0.85400571  0.37233657  0.37607739     1.35200
V206        V  0.88829819  0.37395792  0.37431685     1.35200
C207        C  0.87324692  0.37461299  0.41715554     0.77700
C208        C  0.86896282  0.37161373  0.33328439     0.77800
C209        C  0.87317339  0.33115192  0.37620794     0.77600
C210        C  0.86917239  0.41506223  0.37309620     0.77600
O211        O  0.89111078  0.40252368  0.62436125    -0.71500
O212        O  0.89196299  0.34015044  0.62724650    -0.71700
O213        O  0.89209737  0.37011392  0.59432161    -0.71600
O214        O  0.89086747  0.37260345  0.65698244    -0.71600
O215        O  0.85515749  0.37146798  0.65634692    -0.71600
O216        O  0.85630421  0.37030473  0.59377395    -0.71600
O217        O  0.85629318  0.33944128  0.62604227    -0.71500
O218        O  0.85533430  0.40217252  0.62428536    -0.71700
V219        V  0.89081265  0.37132558  0.62567255     1.35200
V220        V  0.85645083  0.37082206  0.62507598     1.35200
C221        C  0.87315707  0.41304254  0.62409257     0.77700
C222        C  0.87429861  0.32906786  0.62770358     0.77800
C223        C  0.87435419  0.37054593  0.58335814     0.77600
C224        C  0.87279054  0.37219945  0.66740988     0.77600
O225        O  0.34510981  0.85342314  0.37246356    -0.71500
O226        O  0.40765668  0.85579406  0.37222655    -0.71700
O227        O  0.37653885  0.85456044  0.40369619    -0.71600
O228        O  0.37622408  0.85456961  0.34111931    -0.71600
O229        O  0.37576824  0.89033391  0.34109863    -0.71600
O230        O  0.37418963  0.89028233  0.40370288    -0.71600
O231        O  0.40624203  0.89157962  0.37330943    -0.71500
O232        O  0.34378670  0.88910471  0.37158913    -0.71700
V233        V  0.37636225  0.85527276  0.37238389     1.35200
V234        V  0.37504184  0.88964124  0.37241701     1.35200
C235        C  0.33368994  0.87083291  0.37183520     0.77700
C236        C  0.41760585  0.87411525  0.37287100     0.77800
C237        C  0.37512531  0.87242100  0.41440013     0.77600
C238        C  0.37583164  0.87240836  0.33038037     0.77600
O239        O  0.34264171  0.85246363  0.62216407    -0.71500
O240        O  0.40526457  0.85581926  0.62301134    -0.71700
O241        O  0.37355317  0.85429251  0.65384168    -0.71600
O242        O  0.37433348  0.85373767  0.59134928    -0.71600
O243        O  0.37263812  0.88952056  0.59091166    -0.71600
O244        O  0.37169605  0.89000480  0.65368074    -0.71600
O245        O  0.40333653  0.89159070  0.62255146    -0.71500
O246        O  0.34092877  0.88815773  0.62181780    -0.71700
V247        V  0.37392355  0.85477507  0.62258715     1.35200
V248        V  0.37216878  0.88913231  0.62227420     1.35200
C249        C  0.33103582  0.86977531  0.62173943     0.77700
C250        C  0.41496011  0.87431045  0.62287213     0.77800
C251        C  0.37260421  0.87216256  0.66450912     0.77600
C252        C  0.37353504  0.87146702  0.58045647     0.77600
O253        O  0.59122903  0.86214964  0.62638052    -0.71500
O254        O  0.65368280  0.86199075  0.62901199    -0.71700
O255        O  0.62147874  0.86065421  0.65907225    -0.71600
O256        O  0.62375667  0.86346207  0.59656085    -0.71600
O257        O  0.62279178  0.89925412  0.59814353    -0.71600
O258        O  0.62227049  0.89633372  0.66069844    -0.71600
O259        O  0.65374642  0.89774533  0.62985742    -0.71500
O260        O  0.59116660  0.89785608  0.62885279    -0.71700
V261        V  0.62247124  0.86275137  0.62782089     1.35200
V262        V  0.62246319  0.89711257  0.62939366     1.35200
C263        C  0.58053510  0.88003313  0.62663908     0.77700
C264        C  0.66443481  0.87986230  0.62967647     0.77800
C265        C  0.62222780  0.87798447  0.67064955     0.77600
C266        C  0.62369295  0.88182707  0.58670842     0.77600
O267        O  0.62521850  0.90078307  0.40960202    -0.71500
O268        O  0.62543889  0.89819963  0.34692426    -0.71700
O269        O  0.59401126  0.89985178  0.37807706    -0.71600
O270        O  0.65664289  0.89904335  0.37835528    -0.71600
O271        O  0.65610398  0.86330232  0.37962896    -0.71600
O272        O  0.59359326  0.86407832  0.37973327    -0.71600
O273        O  0.62467829  0.86242789  0.34840479    -0.71500
O274        O  0.62470487  0.86498161  0.41092365    -0.71700
V275        V  0.62533300  0.89879091  0.37827811     1.35200
V276        V  0.62482831  0.86440350  0.37964760     1.35200
C277        C  0.62455710  0.88328079  0.42092851     0.77700
C278        C  0.62477383  0.87985340  0.33697733     0.77800
C279        C  0.58312120  0.88206338  0.37874230     0.77600
C280        C  0.66710661  0.88103529  0.37905091     0.77600
O281        O  0.12001498  0.84190102  0.61243364    -0.71500
O282        O  0.12520144  0.90438350  0.61059085    -0.71700
O283        O  0.15364625  0.87078752  0.61124360    -0.71600
O284        O  0.09135646  0.87537298  0.61154860    -0.71600
O285        O  0.09145215  0.87573011  0.64736587    -0.71600
O286        O  0.15413876  0.87271655  0.64690251    -0.71600
O287        O  0.12435513  0.90545252  0.64641485    -0.71500
O288        O  0.12120513  0.84295720  0.64818884    -0.71700
V289        V  0.12253396  0.87315551  0.61215110     1.35200
V290        V  0.12278076  0.87419412  0.64653707     1.35200
C291        C  0.11970274  0.83175774  0.63064900     0.77700
C292        C  0.12584686  0.91550907  0.62824212     0.77800
C293        C  0.16465854  0.87126771  0.62894141     0.77600
C294        C  0.08072594  0.87596597  0.62946640     0.77600
O295        O  0.16123625  0.12335289  0.60572372    -0.71500
O296        O  0.09889229  0.12366700  0.60696567    -0.71700
O297        O  0.13031543  0.15493325  0.60684836    -0.71600
O298        O  0.12996269  0.09217390  0.60598762    -0.71600
O299        O  0.13238728  0.09178861  0.64167760    -0.71600
O300        O  0.12911916  0.15431499  0.64265249    -0.71600
O301        O  0.09949215  0.12148032  0.64263834    -0.71500
O302        O  0.16207045  0.12458820  0.64142819    -0.71700
V303        V  0.13010443  0.12353355  0.60706815     1.35200
V304        V  0.13076562  0.12306483  0.64143312     1.35200
C305        C  0.17237789  0.12413411  0.62326979     0.77700
C306        C  0.08846647  0.12222990  0.62492297     0.77800
C307        C  0.12948124  0.16529902  0.62494849     0.77600
C308        C  0.13137584  0.08125035  0.62369399     0.77600
O309        O  0.91162167  0.12191129  0.61276938    -0.71500
O310        O  0.84915917  0.12149401  0.61351604    -0.71700
O311        O  0.88031694  0.15295846  0.61408580    -0.71600
O312        O  0.88047327  0.09034738  0.61238984    -0.71600
O313        O  0.87975406  0.08952817  0.64812520    -0.71600
O314        O  0.88185199  0.15206848  0.64978449    -0.71600
O315        O  0.84945772  0.12172213  0.64924096    -0.71500
O316        O  0.91207378  0.11968221  0.64853619    -0.71700
V317        V  0.88039715  0.12165908  0.61388025     1.35200
V318        V  0.88077292  0.12078306  0.64824648     1.35200
C319        C  0.92248175  0.12057579  0.63049132     0.77700
C320        C  0.83855199  0.12159120  0.63147124     0.77800
C321        C  0.88144001  0.16325546  0.63218612     0.77600
C322        C  0.87999236  0.07920037  0.62999313     0.77600
O323        O  0.84223556  0.87205412  0.65051438    -0.71500
O324        O  0.90477286  0.86969090  0.64778256    -0.71700
O325        O  0.87485771  0.90212613  0.64971014    -0.71600
O326        O  0.87230468  0.83948273  0.64856119    -0.71600
O327        O  0.87184692  0.84026539  0.61278726    -0.71600
O328        O  0.87193818  0.90278506  0.61400458    -0.71600
O329        O  0.90320159  0.87164465  0.61207477    -0.71500
O330        O  0.84072501  0.87155770  0.61482168    -0.71700
V331        V  0.87349116  0.87082969  0.64847244     1.35200
V332        V  0.87196839  0.87151463  0.61411936     1.35200
C333        C  0.83073288  0.87210782  0.63312893     0.77700
C334        C  0.91467429  0.87085358  0.62946033     0.77800
C335        C  0.87382104  0.91310459  0.63201833     0.77600
C336        C  0.87170181  0.82917081  0.63040875     0.77600
O337        O  0.35340331  0.12941191  0.15613964    -0.71500
O338        O  0.35237856  0.12805354  0.09355961    -0.71700
O339        O  0.35257517  0.09742082  0.12539853    -0.71600
O340        O  0.35314768  0.15998870  0.12405675    -0.71600
O341        O  0.38895221  0.15982981  0.12377399    -0.71600
O342        O  0.38833376  0.09709310  0.12477395    -0.71600
O343        O  0.38814451  0.12798691  0.09294083    -0.71500
O344        O  0.38918804  0.12913538  0.15559805    -0.71700
V345        V  0.35358417  0.12871575  0.12481410     1.35200
V346        V  0.38797478  0.12848528  0.12428986     1.35200
C347        C  0.37145344  0.12949510  0.16656729     0.77700
C348        C  0.37005430  0.12778093  0.08254235     0.77800
C349        C  0.37034023  0.08652199  0.12520459     0.77600
C350        C  0.37110513  0.17058599  0.12367222     0.77600
O351        O  0.35416251  0.09422935  0.87544892    -0.71500
O352        O  0.35419438  0.15695084  0.87251961    -0.71700
O353        O  0.35517347  0.12413239  0.84255048    -0.71600
O354        O  0.35312666  0.12719704  0.90515640    -0.71600
O355        O  0.38890968  0.12628246  0.90626844    -0.71600
O356        O  0.39085039  0.12498858  0.84375570    -0.71600
O357        O  0.38994813  0.15689811  0.87432486    -0.71500
O358        O  0.38998278  0.09445300  0.87556101    -0.71700
V359        V  0.35482851  0.12560643  0.87391644     1.35200
V360        V  0.38920748  0.12565782  0.87497264     1.35200
C361        C  0.37215783  0.08368677  0.87569124     0.77700
C362        C  0.37214323  0.16760126  0.87304426     0.77800
C363        C  0.37341567  0.12434031  0.83238682     0.77600
C364        C  0.37069417  0.12724705  0.91636842     0.77600
O365        O  0.35611934  0.84494699  0.87319527    -0.71500
O366        O  0.35686894  0.90746800  0.87261952    -0.71700
O367        O  0.35627019  0.87578675  0.84157900    -0.71600
O368        O  0.35678909  0.87681218  0.90413293    -0.71600
O369        O  0.39252596  0.87440585  0.90391391    -0.71600
O370        O  0.39199838  0.87715687  0.84136097    -0.71600
O371        O  0.39262284  0.90707972  0.87427880    -0.71500
O372        O  0.39175775  0.84445645  0.87112334    -0.71700
V373        V  0.35719847  0.87621111  0.87286947     1.35200
V374        V  0.39156289  0.87577251  0.87264424     1.35200
C375        C  0.37372474  0.83393482  0.87177216     0.77700
C376        C  0.37483049  0.91794324  0.87414364     0.77800
C377        C  0.37407072  0.87663836  0.83074323     0.77600
C378        C  0.37474815  0.87597722  0.91466648     0.77600
O379        O  0.38746723  0.91060953  0.12199472    -0.71500
O380        O  0.39113172  0.84804202  0.12229504    -0.71700
O381        O  0.38946234  0.87926032  0.09095150    -0.71600
O382        O  0.38920589  0.87934394  0.15347444    -0.71600
O383        O  0.35356306  0.87706803  0.15341585    -0.71600
O384        O  0.35371297  0.87705694  0.09078906    -0.71600
O385        O  0.35544097  0.84592605  0.12213584    -0.71500
O386        O  0.35171429  0.90847752  0.12221156    -0.71700
V387        V  0.38862087  0.87928891  0.12219137     1.35200
V388        V  0.35429163  0.87721161  0.12212076     1.35200
C389        C  0.36896399  0.92020814  0.12212328     0.77700
C390        C  0.37391662  0.83626895  0.12222897     0.77800
C391        C  0.37165981  0.87792698  0.08021387     0.77600
C392        C  0.37136245  0.87800237  0.16419966     0.77600
O393        O  0.86649354  0.35546683  0.15633322    -0.71500
O394        O  0.86684502  0.35715578  0.09376521    -0.71700
O395        O  0.89800008  0.35651037  0.12542700    -0.71600
O396        O  0.83530764  0.35618821  0.12485671    -0.71600
O397        O  0.83536221  0.39199312  0.12554513    -0.71600
O398        O  0.89775894  0.39223857  0.12676789    -0.71600
O399        O  0.86721807  0.39296435  0.09479744    -0.71500
O400        O  0.86605002  0.39124431  0.15723774    -0.71700
V401        V  0.86664942  0.35699800  0.12507627     1.35200
V402        V  0.86656606  0.39139878  0.12602699     1.35200
C403        C  0.86652811  0.37311928  0.16746571     0.77700
C404        C  0.86733864  0.37536793  0.08361723     0.77800
C405        C  0.90860732  0.37448530  0.12649422     0.77600
C406        C  0.82465411  0.37411563  0.12541352     0.77600
O407        O  0.90694461  0.38741132  0.87512161    -0.71500
O408        O  0.84460975  0.38895810  0.87527731    -0.71700
O409        O  0.87567749  0.38915324  0.90651558    -0.71600
O410        O  0.87568881  0.38705114  0.84392196    -0.71600
O411        O  0.87489232  0.35130331  0.84503668    -0.71600
O412        O  0.87465666  0.35339295  0.90760726    -0.71600
O413        O  0.84342441  0.35326312  0.87622769    -0.71500
O414        O  0.90629568  0.35164406  0.87649671    -0.71700
V415        V  0.87574318  0.38742599  0.87523426     1.35200
V416        V  0.87485912  0.35306251  0.87632264     1.35200
C417        C  0.91733954  0.36936731  0.87575081     0.77700
C418        C  0.83326366  0.37151810  0.87574363     0.77800
C419        C  0.87500451  0.37160020  0.91776431     0.77600
C420        C  0.87507244  0.36882033  0.83375334     0.77600
O421        O  0.08592685  0.36009798  0.12676632    -0.71500
O422        O  0.14821096  0.36442909  0.12403020    -0.71700
O423        O  0.11829005  0.36302337  0.15673824    -0.71600
O424        O  0.11574451  0.36174799  0.09409305    -0.71600
O425        O  0.11328092  0.39749922  0.09371978    -0.71600
O426        O  0.11618990  0.39870562  0.15611181    -0.71600
O427        O  0.14594261  0.40007438  0.12325358    -0.71500
O428        O  0.08350768  0.39588516  0.12680438    -0.71700
V429        V  0.11700780  0.36301022  0.12540758     1.35200
V430        V  0.11475208  0.39734441  0.12494895     1.35200
C431        C  0.07416312  0.37724289  0.12764928     0.77700
C432        C  0.15781008  0.38294264  0.12303193     0.77800
C433        C  0.11756035  0.38113173  0.16715604     0.77600
C434        C  0.11428476  0.37949532  0.08324094     0.77600
O435        O  0.15596466  0.39833286  0.87610519    -0.71500
O436        O  0.09328633  0.39588977  0.87444592    -0.71700
O437        O  0.12364146  0.39764199  0.90653789    -0.71600
O438        O  0.12544901  0.39671069  0.84395928    -0.71600
O439        O  0.12705596  0.36102800  0.84446175    -0.71600
O440        O  0.12497391  0.36184484  0.90712980    -0.71600
O441        O  0.09479877  0.36009491  0.87460189    -0.71500
O442        O  0.15722709  0.36261169  0.87681750    -0.71700
V443        V  0.12464760  0.39646130  0.87527688     1.35200
V444        V  0.12599655  0.36209308  0.87576407     1.35200
C445        C  0.16733663  0.38086556  0.87678102     0.77700
C446        C  0.08338450  0.37751037  0.87399027     0.77800
C447        C  0.12370345  0.37992366  0.91750105     0.77600
C448        C  0.12635094  0.37869631  0.83343139     0.77600
O449        O  0.60843279  0.84543524  0.12878156    -0.71500
O450        O  0.60642010  0.90793704  0.12767533    -0.71700
O451        O  0.60881610  0.87602287  0.09693230    -0.71600
O452        O  0.60613490  0.87733394  0.15955439    -0.71600
O453        O  0.64188305  0.87598373  0.16094976    -0.71600
O454        O  0.64440958  0.87968145  0.09846506    -0.71600
O455        O  0.64200962  0.90905038  0.13177949    -0.71500
O456        O  0.64411929  0.84652297  0.12797206    -0.71700
V457        V  0.60812069  0.87670005  0.12825404     1.35200
V458        V  0.64244454  0.87779355  0.12972184     1.35200
C459        C  0.62655962  0.83521306  0.12829969     0.77700
C460        C  0.62381808  0.91910687  0.13030755     0.77800
C461        C  0.62707620  0.87777859  0.08701852     0.77600
C462        C  0.62360288  0.87672924  0.17093283     0.77600
O463        O  0.65100952  0.87610719  0.84757091    -0.71500
O464        O  0.65043544  0.87567666  0.91039936    -0.71700
O465        O  0.65133985  0.84463567  0.87869687    -0.71600
O466        O  0.65038922  0.90707623  0.87916196    -0.71600
O467        O  0.61461142  0.90656425  0.87763723    -0.71600
O468        O  0.61565228  0.84388067  0.87927098    -0.71600
O469        O  0.61467111  0.87612054  0.90984740    -0.71500
O470        O  0.61528240  0.87453156  0.84739507    -0.71700
V471        V  0.65010917  0.87583764  0.87897238     1.35200
V472        V  0.61574066  0.87525275  0.87859968     1.35200
C473        C  0.63317621  0.87536443  0.83675823     0.77700
C474        C  0.63236440  0.87633255  0.92083765     0.77800
C475        C  0.63376063  0.83349468  0.87882308     0.77600
C476        C  0.63240100  0.91746604  0.87787029     0.77600
O477        O  0.60899265  0.09297094  0.87394299    -0.71500
O478        O  0.60536483  0.15543699  0.87353928    -0.71700
O479        O  0.60878905  0.12418232  0.84251573    -0.71600
O480        O  0.60551474  0.12428587  0.90500419    -0.71600
O481        O  0.64116123  0.12628050  0.90688533    -0.71600
O482        O  0.64443471  0.12640792  0.84420264    -0.71600
O483        O  0.64099105  0.15755344  0.87549260    -0.71500
O484        O  0.64466647  0.09500375  0.87556414    -0.71700
V485        V  0.60787070  0.12424005  0.87377961     1.35200
V486        V  0.64214198  0.12625526  0.87551298     1.35200
C487        C  0.62740205  0.08329059  0.87498213     0.77700
C488        C  0.62253473  0.16721266  0.87446926     0.77800
C489        C  0.62707374  0.12564989  0.83263997     0.77600
C490        C  0.62274653  0.12521869  0.91667371     0.77600
O491        O  0.60624029  0.12716936  0.15668733    -0.71500
O492        O  0.60453258  0.12605346  0.09407475    -0.71700
O493        O  0.60611629  0.09532187  0.12605397    -0.71600
O494        O  0.60458567  0.15783394  0.12490514    -0.71600
O495        O  0.64033801  0.15871510  0.12352346    -0.71600
O496        O  0.64183017  0.09609490  0.12569727    -0.71600
O497        O  0.64033303  0.12616768  0.09323021    -0.71500
O498        O  0.64195438  0.12854438  0.15572599    -0.71700
V499        V  0.60606025  0.12660073  0.12538589     1.35200
V500        V  0.64042608  0.12738293  0.12451171     1.35200
C501        C  0.62437796  0.12798999  0.16691913     0.77700
C502        C  0.62218782  0.12568764  0.08298815     0.77800
C503        C  0.62421374  0.08496852  0.12640076     0.77600
C504        C  0.62220370  0.16896610  0.12428840     0.77600
O505        O  0.12708047  0.64866117  0.15718757    -0.71500
O506        O  0.12862489  0.65251815  0.09467947    -0.71700
O507        O  0.09654621  0.64989707  0.12510522    -0.71600
O508        O  0.15910519  0.65142644  0.12689102    -0.71600
O509        O  0.15993237  0.61567841  0.12531355    -0.71600
O510        O  0.09733602  0.61418515  0.12229192    -0.71600
O511        O  0.12981240  0.61675370  0.09267371    -0.71500
O512        O  0.12737422  0.61294147  0.15504530    -0.71700
V513        V  0.12784178  0.64993329  0.12592255     1.35200
V514        V  0.12862077  0.61558103  0.12387196     1.35200
C515        C  0.12723516  0.63017234  0.16681497     0.77700
C516        C  0.12933741  0.63522287  0.08302948     0.77800
C517        C  0.08627580  0.63184417  0.12306191     0.77600
C518        C  0.17021613  0.63378888  0.12679114     0.77600
O519        O  0.15891599  0.64563304  0.87457153    -0.71500
O520        O  0.09650038  0.64458205  0.87340236    -0.71700
O521        O  0.12717416  0.64694026  0.90540925    -0.71600
O522        O  0.12814596  0.64314879  0.84290586    -0.71600
O523        O  0.12757323  0.60746751  0.84497443    -0.71600
O524        O  0.12878428  0.61124686  0.90745216    -0.71600
O525        O  0.09683719  0.60890922  0.87664495    -0.71500
O526        O  0.15955239  0.60987308  0.87557717    -0.71700
V527        V  0.12770475  0.64437853  0.87416300     1.35200
V528        V  0.12819347  0.61004525  0.87617197     1.35200
C529        C  0.16994812  0.62798728  0.87498635     0.77700
C530        C  0.08601683  0.62660197  0.87438285     0.77800
C531        C  0.12819726  0.62971466  0.91713190     0.77600
C532        C  0.12761396  0.62465788  0.83321177     0.77600
O533        O  0.90879987  0.64136232  0.87190021    -0.71500
O534        O  0.84620989  0.63889436  0.87299007    -0.71700
O535        O  0.87789793  0.64031330  0.90374813    -0.71600
O536        O  0.87692305  0.63994567  0.84116553    -0.71600
O537        O  0.87724477  0.60423402  0.84128005    -0.71600
O538        O  0.88038163  0.60456484  0.90386128    -0.71600
O539        O  0.84753144  0.60321732  0.87408201    -0.71500
O540        O  0.90999425  0.60559907  0.87096928    -0.71700
V541        V  0.87749957  0.63944598  0.87246233     1.35200
V542        V  0.87876845  0.60508816  0.87256450     1.35200
C543        C  0.92008350  0.62384975  0.87080933     0.77700
C544        C  0.83610392  0.62063388  0.87385579     0.77800
C545        C  0.87928015  0.62250032  0.91446948     0.77600
C546        C  0.87666608  0.62206467  0.83044690     0.77600
O547        O  0.87778739  0.60845007  0.15443136    -0.71500
O548        O  0.88091185  0.60566232  0.09206992    -0.71700
O549        O  0.91069781  0.60894188  0.12474487    -0.71600
O550        O  0.84819776  0.60527362  0.12203994    -0.71600
O551        O  0.84629748  0.64103144  0.12123174    -0.71600
O552        O  0.90880692  0.64461328  0.12186915    -0.71600
O553        O  0.87803582  0.64128923  0.09035257    -0.71500
O554        O  0.87700836  0.64424994  0.15290997    -0.71700
V555        V  0.87940669  0.60777560  0.12326060     1.35200
V556        V  0.87758162  0.64211237  0.12163187     1.35200
C557        C  0.87678505  0.62678558  0.16429838     0.77700
C558        C  0.87970669  0.62295254  0.08051379     0.77800
C559        C  0.92040357  0.62738783  0.12360839     0.77600
C560        C  0.83657178  0.62256775  0.12168028     0.77600
O561        O  0.36804954  0.40958234  0.13716527    -0.71500
O562        O  0.36519768  0.34693478  0.13680785    -0.71700
O563        O  0.39782984  0.37681696  0.13658503    -0.71600
O564        O  0.33533948  0.37974680  0.13748345    -0.71600
O565        O  0.33466494  0.37944023  0.10177263    -0.71600
O566        O  0.39736799  0.37759998  0.10082593    -0.71600
O567        O  0.36522989  0.34724079  0.10101878    -0.71500
O568        O  0.36697289  0.40973809  0.10141751    -0.71700
V569        V  0.36656268  0.37826988  0.13632393     1.35200
V570        V  0.36603870  0.37848735  0.10194873     1.35200
C571        C  0.36787044  0.42038095  0.11930941     0.77700
C572        C  0.36532229  0.33638806  0.11878978     0.77800
C573        C  0.40832762  0.37692339  0.11856108     0.77600
C574        C  0.32423720  0.38005141  0.11986106     0.77600
O575        O  0.34693882  0.62978221  0.14215679    -0.71500
O576        O  0.40956461  0.62652733  0.14140015    -0.71700
O577        O  0.37985212  0.65926264  0.14227256    -0.71600
O578        O  0.37645103  0.59675532  0.14135364    -0.71600
O579        O  0.37837684  0.59715536  0.10557833    -0.71600
O580        O  0.37713163  0.65978276  0.10656799    -0.71600
O581        O  0.40904410  0.62928534  0.10570746    -0.71500
O582        O  0.34651462  0.62797260  0.10640027    -0.71700
V583        V  0.37821706  0.62802822  0.14112955     1.35200
V584        V  0.37780015  0.62848830  0.10674126     1.35200
C585        C  0.33603475  0.62929422  0.12436730     0.77700
C586        C  0.41999703  0.62831238  0.12340915     0.77800
C587        C  0.37862902  0.67020274  0.12458823     0.77600
C588        C  0.37691191  0.58629215  0.12331443     0.77600
O589        O  0.59689037  0.62801303  0.14096436    -0.71500
O590        O  0.65941376  0.62610447  0.14167938    -0.71700
O591        O  0.62909387  0.65833109  0.14125855    -0.71600
O592        O  0.62747509  0.59570597  0.14140354    -0.71600
O593        O  0.62697863  0.59558503  0.10556403    -0.71600
O594        O  0.62991210  0.65818551  0.10546771    -0.71600
O595        O  0.65980110  0.62537226  0.10594939    -0.71500
O596        O  0.59717435  0.62841300  0.10517944    -0.71700
V597        V  0.62818301  0.62702396  0.14062540     1.35200
V598        V  0.62847671  0.62688854  0.10622248     1.35200
C599        C  0.58634059  0.62896789  0.12300419     0.77700
C600        C  0.67035074  0.62528643  0.12397936     0.77800
C601        C  0.62969307  0.66895702  0.12332979     0.77600
C602        C  0.62717999  0.58499038  0.12350908     0.77600
O603        O  0.64810091  0.37762920  0.10518605    -0.71500
O604        O  0.58552212  0.37716609  0.10530111    -0.71700
O605        O  0.61692249  0.40877339  0.10611846    -0.71600
O606        O  0.61705864  0.34610157  0.10443839    -0.71600
O607        O  0.61585838  0.34524284  0.14019763    -0.71600
O608        O  0.61807345  0.40784079  0.14185825    -0.71600
O609        O  0.58554571  0.37754538  0.14109668    -0.71500
O610        O  0.64817281  0.37551561  0.14091214    -0.71700
V611        V  0.61684376  0.37741359  0.10594927     1.35200
V612        V  0.61687597  0.37655649  0.14033099     1.35200
C613        C  0.65883328  0.37661948  0.12301051     0.77700
C614        C  0.57482078  0.37741021  0.12320990     0.77800
C615        C  0.61801924  0.41903242  0.12428233     0.77600
C616        C  0.61661598  0.33496138  0.12204855     0.77600
O617        O  0.34668066  0.62544810  0.88992778    -0.71500
O618        O  0.40902135  0.62664620  0.89039263    -0.71700
O619        O  0.37721764  0.65734144  0.88891632    -0.71600
O620        O  0.37856594  0.59466150  0.89111880    -0.71600
O621        O  0.37805927  0.59350767  0.85527900    -0.71600
O622        O  0.37783072  0.65600397  0.85323826    -0.71600
O623        O  0.40942650  0.62516119  0.85459645    -0.71500
O624        O  0.34667141  0.62464006  0.85419293    -0.71700
V625        V  0.37786482  0.62598337  0.88938962     1.35200
V626        V  0.37802956  0.62481283  0.85500719     1.35200
C627        C  0.33594385  0.62498126  0.87210437     0.77700
C628        C  0.41987445  0.62633487  0.87263499     0.77800
C629        C  0.37727434  0.66743366  0.87063217     0.77600
C630        C  0.37843359  0.58345518  0.87351353     0.77600
O631        O  0.59648045  0.62577875  0.89755233    -0.71500
O632        O  0.65912527  0.62349656  0.89704733    -0.71700
O633        O  0.62903995  0.65580060  0.89825324    -0.71600
O634        O  0.62666283  0.59328805  0.89647522    -0.71600
O635        O  0.62501481  0.59433310  0.86067996    -0.71600
O636        O  0.62995455  0.65672062  0.86253232    -0.71600
O637        O  0.65877090  0.62323900  0.86126231    -0.71500
O638        O  0.59646560  0.62785402  0.86181868    -0.71700
V639        V  0.62781882  0.62457945  0.89665546     1.35200
V640        V  0.62758010  0.62550930  0.86226802     1.35200
C641        C  0.58579661  0.62747173  0.87971639     0.77700
C642        C  0.66965538  0.62315330  0.87904973     0.77800
C643        C  0.63001548  0.66698251  0.88071939     0.77600
C644        C  0.62501894  0.58320368  0.87829343     0.77600
O645        O  0.65605718  0.37462158  0.85755550    -0.71500
O646        O  0.59362944  0.37644395  0.85756387    -0.71700
O647        O  0.62572159  0.40676709  0.85729453    -0.71600
O648        O  0.62379997  0.34423637  0.85775662    -0.71600
O649        O  0.62425194  0.34446764  0.89345983    -0.71600
O650        O  0.62524415  0.40710500  0.89310072    -0.71600
O651        O  0.59364166  0.37635198  0.89335624    -0.71500
O652        O  0.65618389  0.37531610  0.89325353    -0.71700
V653        V  0.62483447  0.37551431  0.85823931     1.35200
V654        V  0.62487323  0.37578899  0.89261709     1.35200
C655        C  0.66688528  0.37479376  0.87533996     0.77700
C656        C  0.58297245  0.37683370  0.87547398     0.77800
C657        C  0.62553804  0.41761332  0.87509300     0.77600
C658        C  0.62353698  0.33358284  0.87568636     0.77600
O659        O  0.37690578  0.40667202  0.89389651    -0.71500
O660        O  0.37564772  0.34403296  0.89343243    -0.71700
O661        O  0.40747406  0.37471058  0.89255873    -0.71600
O662        O  0.34502277  0.37608966  0.89476288    -0.71600
O663        O  0.34373157  0.37651322  0.85906803    -0.71600
O664        O  0.40619081  0.37508987  0.85674184    -0.71600
O665        O  0.37406061  0.34438177  0.85763965    -0.71500
O666        O  0.37574931  0.40698684  0.85813179    -0.71700
V667        V  0.37624236  0.37536611  0.89297042     1.35200
V668        V  0.37498120  0.37568966  0.85858450     1.35200
C669        C  0.37634734  0.41754001  0.87612249     0.77700
C670        C  0.37440189  0.33354504  0.87544239     0.77800
C671        C  0.41745393  0.37500389  0.87427273     0.77600
C672        C  0.33363974  0.37671250  0.87732923     0.77600
C673        C  0.55865766  0.37732290  0.87527914    -0.11700
C674        C  0.54621702  0.38671138  0.89262635     0.03800
C675        C  0.52320158  0.38603836  0.89179296    -0.12200
C676        C  0.51228540  0.37623220  0.87392470     0.18600
C677        C  0.52459373  0.36736353  0.85640364    -0.09300
C678        C  0.54757692  0.36797572  0.85717710    -0.02200
H679        H  0.51372355  0.39326778  0.90511581     0.05200
C680        C  0.48802695  0.37551358  0.87383477     0.20600
H681        H  0.55682062  0.36071581  0.84371297     0.10300
C682        C  0.47640403  0.38892414  0.85904959    -0.15600
C683        C  0.45336975  0.38887318  0.85877163     0.03300
C684        C  0.44168141  0.37524154  0.87357498    -0.10900
C685        C  0.45337889  0.36197270  0.88848095    -0.01000
C686        C  0.47639940  0.36192933  0.88861576    -0.06100
H687        H  0.48531787  0.39965103  0.84786981     0.06300
H688        H  0.44457150  0.35141281  0.89990081     0.09700
Br689      Br  0.51076190  0.35354658  0.83148762    -0.05800
Br690      Br  0.55936425  0.40175650  0.91725800    -0.02800
Br691      Br  0.43887777  0.40892933  0.83901811     0.00100
Br692      Br  0.49127521  0.34264439  0.90881398    -0.04300
C693        C  0.62362932  0.55897918  0.87771380    -0.11700
C694        C  0.60804978  0.54784848  0.86446244     0.03800
C695        C  0.60775903  0.52475512  0.86401496    -0.12200
C696        C  0.62278934  0.51260081  0.87666535     0.18600
C697        C  0.63816944  0.52369416  0.89003574    -0.09300
C698        C  0.63838294  0.54672568  0.89062046    -0.02200
H699        H  0.59572873  0.51624490  0.85388406     0.05200
C700        C  0.62246543  0.48832996  0.87569335     0.20600
H701        H  0.65042657  0.55510856  0.90084372     0.10300
C702        C  0.63459513  0.47757268  0.85924010    -0.15600
C703        C  0.63590636  0.45454002  0.85870893     0.03300
C704        C  0.62492628  0.44194854  0.87495514    -0.10900
C705        C  0.61266967  0.45285448  0.89133145    -0.01000
C706        C  0.61125737  0.47586062  0.89169261    -0.06100
H707        H  0.64344515  0.48717689  0.84703890     0.06300
H708        H  0.60392372  0.44343991  0.90375406     0.09700
Br709      Br  0.65943085  0.50797335  0.90738847    -0.05800
Br710      Br  0.58602051  0.56332754  0.84782024    -0.02800
Br711      Br  0.65415227  0.44147359  0.83634500     0.00100
Br712      Br  0.59386950  0.48964031  0.91425576    -0.04300
C713        C  0.37837491  0.55919858  0.87410713    -0.11700
C714        C  0.39471844  0.54729679  0.88552598     0.03800
C715        C  0.39420142  0.52421593  0.88551328    -0.12200
C716        C  0.37747575  0.51278452  0.87435081     0.18600
C717        C  0.36100090  0.52465456  0.86314963    -0.09300
C718        C  0.36169659  0.54771986  0.86286720    -0.02200
H719        H  0.40695200  0.51513405  0.89411352     0.05200
C720        C  0.37738684  0.48846441  0.87471820     0.20600
H721        H  0.34897080  0.55674312  0.85416318     0.10300
C722        C  0.36830105  0.47753713  0.89290900    -0.15600
C723        C  0.36768916  0.45447878  0.89375553     0.03300
C724        C  0.37655895  0.44195706  0.87616524    -0.10900
C725        C  0.38560613  0.45307175  0.85792592    -0.01000
C726        C  0.38610077  0.47611968  0.85712772    -0.06100
H727        H  0.36135205  0.48703137  0.90637059     0.06300
H728        H  0.39249624  0.44380883  0.84427698     0.09700
Br729      Br  0.33705954  0.50998966  0.84851263    -0.05800
Br730      Br  0.41870763  0.56175238  0.90027428    -0.02800
Br731      Br  0.35315431  0.44138418  0.91867891     0.00100
Br732      Br  0.39892484  0.49010212  0.83180585    -0.04300
C733        C  0.44416291  0.62713680  0.87332232    -0.11700
C734        C  0.45659215  0.63962348  0.85813591     0.03800
C735        C  0.47959148  0.64014549  0.85985380    -0.12200
C736        C  0.49055504  0.62812996  0.87631780     0.18600
C737        C  0.47811410  0.61590787  0.89165896    -0.09300
C738        C  0.45513275  0.61566844  0.89017220    -0.02200
H739        H  0.48901303  0.64994826  0.84825420     0.05200
C740        C  0.51493502  0.62833433  0.87704793     0.20600
H741        H  0.44579058  0.60615316  0.90206120     0.10300
C742        C  0.52578882  0.63736033  0.89541549    -0.15600
C743        C  0.54884095  0.63737630  0.89676085     0.03300
C744        C  0.56143086  0.62832877  0.87935416    -0.10900
C745        C  0.55046335  0.61978672  0.86079741    -0.01000
C746        C  0.52748999  0.61965705  0.85955730    -0.06100
H747        H  0.51624640  0.64447837  0.90874873     0.06300
H748        H  0.55980184  0.61275319  0.84727949     0.09700
Br749      Br  0.49167542  0.59849374  0.91434471    -0.05800
Br750      Br  0.44310772  0.65736233  0.83565593    -0.02800
Br751      Br  0.56193719  0.65107253  0.92216180     0.00100
Br752      Br  0.51412129  0.60658259  0.83397469    -0.04300
C753        C  0.61996987  0.44343751  0.12469239    -0.11700
C754        C  0.61325991  0.45636871  0.14295636     0.03800
C755        C  0.61546416  0.47935499  0.14223411    -0.12200
C756        C  0.62440365  0.48985084  0.12370197     0.18600
C757        C  0.63180564  0.47703602  0.10583448    -0.09300
C758        C  0.62934132  0.45409832  0.10633073    -0.02200
H759        H  0.60984729  0.48916308  0.15609010     0.05200
C760        C  0.62537329  0.51421062  0.12317989     0.20600
H761        H  0.63512273  0.44452807  0.09238153     0.10300
C762        C  0.64074284  0.52530566  0.13645834    -0.15600
C763        C  0.64168181  0.54838950  0.13668412     0.03300
C764        C  0.62698210  0.56068367  0.12351081    -0.10900
C765        C  0.61178910  0.54954495  0.11006074    -0.01000
C766        C  0.61073091  0.52649367  0.10999880    -0.06100
H767        H  0.65212937  0.51595638  0.14655675     0.06300
H768        H  0.60035422  0.55882758  0.09995241     0.09700
Br769      Br  0.64593560  0.49012778  0.08072086    -0.05800
Br770      Br  0.60005843  0.44411339  0.16899782    -0.02800
Br771      Br  0.66419376  0.56225169  0.15416370     0.00100
Br772      Br  0.58842307  0.51250857  0.09239907    -0.04300
C773        C  0.44436985  0.62932492  0.12308593    -0.11700
C774        C  0.45592703  0.64234490  0.10756838     0.03800
C775        C  0.47899673  0.64249417  0.10755001    -0.12200
C776        C  0.49094370  0.62992269  0.12281217     0.18600
C777        C  0.47947121  0.61737187  0.13865041    -0.09300
C778        C  0.45639145  0.61719762  0.13872072    -0.02200
H779        H  0.48769894  0.65261729  0.09566526     0.05200
C780        C  0.51534472  0.63039344  0.12222150     0.20600
H781        H  0.44781153  0.60722632  0.15081690     0.10300
C782        C  0.52688037  0.64032600  0.13963421    -0.15600
C783        C  0.54994600  0.64045835  0.14004734     0.03300
C784        C  0.56194424  0.63035825  0.12277377    -0.10900
C785        C  0.55030425  0.62116804  0.10492854    -0.01000
C786        C  0.52722560  0.62112025  0.10454493    -0.06100
H787        H  0.51784403  0.64803367  0.15299456     0.06300
H788        H  0.55917094  0.61351070  0.09143103     0.09700
Br789      Br  0.49460814  0.59962158  0.16002379    -0.05800
Br790      Br  0.44131113  0.66147083  0.08698244    -0.02800
Br791      Br  0.56385903  0.65581303  0.16404549     0.00100
Br792      Br  0.51267782  0.60739592  0.07998061    -0.04300
C793        C  0.55039697  0.37690590  0.12301702    -0.11700
C794        C  0.53753439  0.38750959  0.13930833     0.03800
C795        C  0.51449209  0.38648405  0.13822441    -0.12200
C796        C  0.50382958  0.37470983  0.12136484     0.18600
C797        C  0.51663423  0.36397849  0.10521943    -0.09300
C798        C  0.53965127  0.36530130  0.10604510    -0.02200
H799        H  0.50479460  0.39509985  0.15052176     0.05200
C800        C  0.47938736  0.37452824  0.12047038     0.20600
H801        H  0.54921961  0.35682885  0.09355009     0.10300
C802        C  0.46867419  0.38433372  0.10247008    -0.15600
C803        C  0.44563473  0.38504780  0.10123864     0.03300
C804        C  0.43277979  0.37607887  0.11851755    -0.10900
C805        C  0.44360591  0.36631887  0.13655960    -0.01000
C806        C  0.46663403  0.36536675  0.13758198    -0.06100
H807        H  0.47834488  0.39170969  0.08937504     0.06300
H808        H  0.43410787  0.35914060  0.14988575     0.09700
Br809      Br  0.50352222  0.34653169  0.08225112    -0.05800
Br810      Br  0.55021184  0.40465573  0.16273577    -0.02800
Br811      Br  0.43308176  0.39961550  0.07607754     0.00100
Br812      Br  0.47984067  0.35067917  0.16231091    -0.04300
C813        C  0.37580819  0.56197917  0.12292172    -0.11700
C814        C  0.36133543  0.55019355  0.13683725     0.03800
C815        C  0.36084425  0.52714594  0.13602770    -0.12200
C816        C  0.37461607  0.51550477  0.12156754     0.18600
C817        C  0.38894776  0.52721273  0.10754848    -0.09300
C818        C  0.38936310  0.55028954  0.10821804    -0.02200
H819        H  0.34948736  0.51823112  0.14656598     0.05200
C820        C  0.37327769  0.49118197  0.12095854     0.20600
H821        H  0.40057548  0.55912580  0.09746474     0.10300
C822        C  0.36357351  0.48084989  0.10269610    -0.15600
C823        C  0.36141199  0.45788490  0.10178798     0.03300
C824        C  0.36918475  0.44479174  0.11948284    -0.10900
C825        C  0.37872547  0.45531580  0.13784009    -0.01000
C826        C  0.38081094  0.47826980  0.13867337    -0.06100
H827        H  0.35738296  0.49077267  0.08918847     0.06300
H828        H  0.38488390  0.44564531  0.15153626     0.09700
Br829      Br  0.40869981  0.51233880  0.08779315    -0.05800
Br830      Br  0.34076506  0.56462772  0.15611432    -0.02800
Br831      Br  0.34653340  0.44588723  0.07647853     0.00100
Br832      Br  0.39460087  0.49123666  0.16406027    -0.04300
C833        C  0.81221601  0.62147514  0.12166381    -0.11700
C834        C  0.80045014  0.60518055  0.13349428     0.03800
C835        C  0.77735859  0.60527997  0.13333208    -0.12200
C836        C  0.76568406  0.62137614  0.12156139     0.18600
C837        C  0.77736752  0.63778092  0.11002047    -0.09300
C838        C  0.80040721  0.63770421  0.11011971    -0.02200
H839        H  0.76844007  0.59289444  0.14263750     0.05200
C840        C  0.74133703  0.62144557  0.12232717     0.20600
H841        H  0.80914334  0.65046221  0.10115424     0.10300
C842        C  0.73074095  0.62795064  0.14178930    -0.15600
C843        C  0.70772404  0.62923558  0.14292379     0.03300
C844        C  0.69481807  0.62393426  0.12413408    -0.10900
C845        C  0.70564306  0.61698914  0.10479866    -0.01000
C846        C  0.72862632  0.61555630  0.10384980    -0.06100
H847        H  0.74049586  0.63241261  0.15609679     0.06300
H848        H  0.69620535  0.61243814  0.09032031     0.09700
Br849      Br  0.76257393  0.66115654  0.09466149    -0.05800
Br850      Br  0.81476843  0.58347993  0.15156875    -0.02800
Br851      Br  0.69553648  0.63919364  0.17045322     0.00100
Br852      Br  0.74195042  0.60497543  0.07715453    -0.04300
C853        C  0.81156351  0.62004165  0.87441591    -0.11700
C854        C  0.79921700  0.60031436  0.87707304     0.03800
C855        C  0.77614031  0.60114265  0.87748201    -0.12200
C856        C  0.76490641  0.62118979  0.87516231     0.18600
C857        C  0.77702925  0.64075921  0.87239482    -0.09300
C858        C  0.80004699  0.64007863  0.87208864    -0.02200
H859        H  0.76684512  0.58602630  0.87971375     0.05200
C860        C  0.74054614  0.62143905  0.87607460     0.20600
H861        H  0.80893790  0.65542064  0.86984903     0.10300
C862        C  0.73004724  0.63138684  0.89411541    -0.15600
C863        C  0.70703618  0.63229157  0.89541350     0.03300
C864        C  0.69406112  0.62263043  0.87859166    -0.10900
C865        C  0.70469334  0.61277081  0.86048045    -0.01000
C866        C  0.72770566  0.61216609  0.85910296    -0.06100
H867        H  0.73985634  0.63883182  0.90708471     0.06300
H868        H  0.69507028  0.60552164  0.84726901     0.09700
Br869      Br  0.76286155  0.66875152  0.86821648    -0.05800
Br870      Br  0.81221732  0.57161219  0.88049210    -0.02800
Br871      Br  0.69462840  0.64855692  0.91962393     0.00100
Br872      Br  0.74086466  0.59941445  0.83328603    -0.04300
C873        C  0.87980951  0.62259686  0.93878292    -0.11700
C874        C  0.86598552  0.63654730  0.95126925     0.03800
C875        C  0.86712059  0.63621107  0.97429250    -0.12200
C876        C  0.88200014  0.62230852  0.98522261     0.18600
C877        C  0.89575489  0.60831795  0.97279998    -0.09300
C878        C  0.89445720  0.60843088  0.94976050    -0.02200
H879        H  0.85619891  0.64672245  0.98376437     0.05200
C880        C  0.88235968  0.62223305  0.00959086     0.20600
H881        H  0.90523992  0.59771406  0.94036346     0.10300
C882        C  0.87482609  0.60354040  0.02091945    -0.15600
C883        C  0.87387607  0.60323709  0.04397513     0.03300
C884        C  0.88055639  0.62203987  0.05612559    -0.10900
C885        C  0.88812152  0.64071319  0.04463893    -0.01000
C886        C  0.88909505  0.64091573  0.02162072    -0.06100
H887        H  0.86927469  0.58923678  0.01171903     0.06300
H888        H  0.89348757  0.65523251  0.05360045     0.09700
Br889      Br  0.91712165  0.58946329  0.98653021    -0.05800
Br890      Br  0.84425357  0.65531373  0.93794113    -0.02800
Br891      Br  0.86195355  0.57714410  0.05745563     0.00100
Br892      Br  0.90022842  0.66690679  0.00737772    -0.04300
C893        C  0.19435317  0.62841017  0.87415882    -0.11700
C894        C  0.20684367  0.64671078  0.88162626     0.03800
C895        C  0.22985404  0.64631435  0.88006044    -0.12200
C896        C  0.24075631  0.62804853  0.87109524     0.18600
C897        C  0.22847096  0.60984079  0.86367450    -0.09300
C898        C  0.20548534  0.61009037  0.86528632    -0.02200
H899        H  0.23934428  0.66020551  0.88614663     0.05200
C900        C  0.26503398  0.62758447  0.87108695     0.20600
H901        H  0.19628177  0.59593716  0.85938669     0.10300
C902        C  0.27593788  0.62119665  0.89036216    -0.15600
C903        C  0.29892075  0.61992687  0.89109263     0.03300
C904        C  0.31149268  0.62535412  0.87214152    -0.10900
C905        C  0.30035119  0.63177340  0.85280782    -0.01000
C906        C  0.27732449  0.63295215  0.85219934    -0.06100
H907        H  0.26643572  0.61688266  0.90487548     0.06300
H908        H  0.30955832  0.63614834  0.83813544     0.09700
Br909      Br  0.24252062  0.58418774  0.85157886    -0.05800
Br910      Br  0.19391020  0.67220714  0.89532681    -0.02800
Br911      Br  0.31152534  0.60965252  0.91830079     0.00100
Br912      Br  0.26329326  0.64213044  0.82538172    -0.04300
C913        C  0.94445857  0.62471124  0.86973830    -0.11700
C914        C  0.95693424  0.60808028  0.85914953     0.03800
C915        C  0.97996772  0.60895037  0.85963839    -0.12200
C916        C  0.99096155  0.62621756  0.87037222     0.18600
C917        C  0.97865100  0.64324721  0.88021049    -0.09300
C918        C  0.95559169  0.64240735  0.87983179    -0.02200
H919        H  0.98940074  0.59605537  0.85162195     0.05200
C920        C  0.01528614  0.62601930  0.87130176     0.20600
H921        H  0.94634947  0.65538843  0.88792248     0.10300
C922        C  0.02727379  0.64060601  0.85798814    -0.15600
C923        C  0.05032626  0.64082580  0.85852603     0.03300
C924        C  0.06173715  0.62634163  0.87277459    -0.10900
C925        C  0.04967711  0.61135838  0.88566143    -0.01000
C926        C  0.02662023  0.61115208  0.88504750    -0.06100
H927        H  0.01863499  0.65172569  0.84699450     0.06300
H928        H  0.05819327  0.60005420  0.89655796     0.09700
Br929      Br  0.99266754  0.66747087  0.89505477    -0.05800
Br930      Br  0.94373786  0.58436959  0.84273082    -0.02800
Br931      Br  0.06522875  0.66014243  0.83828241     0.00100
Br932      Br  0.01122425  0.59076959  0.90373011    -0.04300
C933        C  0.19461924  0.63449249  0.12795215    -0.11700
C934        C  0.20712979  0.61684287  0.13664101     0.03800
C935        C  0.23015517  0.61773102  0.13607414    -0.12200
C936        C  0.24113861  0.63611557  0.12743136     0.18600
C937        C  0.22882621  0.65413889  0.11962296    -0.09300
C938        C  0.20575816  0.65322698  0.11992682    -0.02200
H939        H  0.23960628  0.60398971  0.14248306     0.05200
C940        C  0.26543404  0.63560133  0.12612321     0.20600
H941        H  0.19651411  0.66704604  0.11339868     0.10300
C942        C  0.27540152  0.62293388  0.10955392    -0.15600
C943        C  0.29832645  0.62056978  0.10864016     0.03300
C944        C  0.31170611  0.63099691  0.12464714    -0.10900
C945        C  0.30160242  0.64367859  0.14124317    -0.01000
C946        C  0.27867367  0.64607127  0.14203973    -0.06100
H947        H  0.26522560  0.61451445  0.09749199     0.06300
H948        H  0.31158677  0.65188598  0.15360142     0.09700
Br949      Br  0.24281651  0.67999351  0.10789416    -0.05800
Br950      Br  0.19406427  0.59162240  0.15068329    -0.02800
Br951      Br  0.31004984  0.60160224  0.08612122     0.00100
Br952      Br  0.26609046  0.66326189  0.16544232    -0.04300
C953        C  0.06192696  0.63158265  0.12206832    -0.11700
C954        C  0.05015568  0.61692443  0.10825628     0.03800
C955        C  0.02705740  0.61722682  0.10821628    -0.12200
C956        C  0.01542397  0.63191689  0.12176165     0.18600
C957        C  0.02710237  0.64666105  0.13534231    -0.09300
C958        C  0.05015079  0.64653442  0.13528521    -0.02200
H959        H  0.01811107  0.60593223  0.09761660     0.05200
C960        C  0.99110519  0.63110581  0.12214574     0.20600
H961        H  0.05891301  0.65789032  0.14597091     0.10300
C962        C  0.98061475  0.61702628  0.13716622    -0.15600
C963        C  0.95759856  0.61580622  0.13812606     0.03300
C964        C  0.94470665  0.62879530  0.12377584    -0.10900
C965        C  0.95527850  0.64321572  0.10902413    -0.01000
C966        C  0.97831750  0.64435029  0.10804804    -0.06100
H967        H  0.99040487  0.60708296  0.14831821     0.06300
H968        H  0.94559202  0.65332670  0.09793040     0.09700
Br969      Br  0.01218487  0.66693849  0.15450640    -0.05800
Br970      Br  0.06458000  0.59701420  0.08827924    -0.02800
Br971      Br  0.94471399  0.59726887  0.16032175     0.00100
Br972      Br  0.99168302  0.66404538  0.08720547    -0.04300
C973        C  0.12867454  0.63620958  0.05873577    -0.11700
C974        C  0.14014876  0.65236875  0.04651641     0.03800
C975        C  0.13919061  0.65206110  0.02342345    -0.12200
C976        C  0.12670169  0.63603460  0.01228490     0.18600
C977        C  0.11482670  0.62029719  0.02451930    -0.09300
C978        C  0.11606289  0.62035183  0.04749974    -0.02200
H979        H  0.14855790  0.66408760  0.01409228     0.05200
C980        C  0.12731214  0.63498151  0.98794380     0.20600
H981        H  0.10688464  0.60805684  0.05666617     0.10300
C982        C  0.13798818  0.61714490  0.97784332    -0.15600
C983        C  0.13859834  0.61508955  0.95488956     0.03300
C984        C  0.12840766  0.63124958  0.94152052    -0.10900
C985        C  0.11808184  0.64935196  0.95174491    -0.01000
C986        C  0.11739070  0.65125291  0.97474703    -0.06100
H987        H  0.14591454  0.60471873  0.98794432     0.06300
H988        H  0.11010757  0.66188115  0.94182409     0.09700
Br989      Br  0.09622204  0.59876832  0.01058611    -0.05800
Br990      Br  0.15855668  0.67417561  0.06029895    -0.02800
Br991      Br  0.15458898  0.59038298  0.94313656     0.00100
Br992      Br  0.10190504  0.67576742  0.98742280    -0.04300
C993        C  0.61687839  0.31054022  0.12167053    -0.11700
C994        C  0.62783387  0.29841362  0.10500217     0.03800
C995        C  0.62802729  0.27534119  0.10581860    -0.12200
C996        C  0.61744935  0.26402438  0.12293833     0.18600
C997        C  0.60649705  0.27596948  0.13950462    -0.09300
C998        C  0.60634584  0.29902538  0.13883066    -0.02200
H999        H  0.63666047  0.26615028  0.09314494     0.05200
C1000       C  0.61841939  0.23973547  0.12344852     0.20600
H1001       H  0.59784715  0.30798709  0.15175026     0.10300
C1002       C  0.63638808  0.22940565  0.13362141    -0.15600
C1003       C  0.63796200  0.20638127  0.13422835     0.03300
C1004       C  0.62137222  0.19333667  0.12427749    -0.10900
C1005       C  0.60324420  0.20383507  0.11436534    -0.01000
C1006       C  0.60171938  0.22683635  0.11384569    -0.06100
H1007       H  0.64913057  0.23932790  0.14130504     0.06300
H1008       H  0.59030230  0.19412057  0.10675527     0.09700
Br1009     Br  0.59166372  0.26140892  0.16335656    -0.05800
Br1010     Br  0.64409018  0.31212416  0.08152185    -0.02800
Br1011     Br  0.66231727  0.19392919  0.15018910     0.00100
Br1012     Br  0.57664784  0.24001445  0.09979307    -0.04300
C1013       C  0.62134118  0.19164453  0.87394803    -0.11700
C1014       C  0.60200032  0.20347079  0.87958032     0.03800
C1015       C  0.60198473  0.22654305  0.87869629    -0.12200
C1016       C  0.62090659  0.23819459  0.87240796     0.18600
C1017       C  0.64020634  0.22657011  0.86702380    -0.09300
C1018       C  0.64028227  0.20353690  0.86772653    -0.02200
H1019       H  0.58722357  0.23550099  0.88329335     0.05200
C1020       C  0.62069145  0.26251053  0.87305140     0.20600
H1021       H  0.65532399  0.19491275  0.86344020     0.10300
C1022       C  0.62165539  0.27311554  0.89353084    -0.15600
C1023       C  0.62242839  0.29613160  0.89501347     0.03300
C1024       C  0.62231436  0.30905879  0.87551102    -0.10900
C1025       C  0.62083699  0.29816443  0.85499991    -0.01000
C1026       C  0.61992960  0.27515938  0.85367715    -0.06100
H1027       H  0.62205732  0.26335074  0.90849437     0.06300
H1028       H  0.62036728  0.30752898  0.83980011     0.09700
Br1029     Br  0.66709741  0.24151615  0.85953233    -0.05800
Br1030     Br  0.57547664  0.18960586  0.89001927    -0.02800
Br1031     Br  0.62369814  0.30816810  0.92432579     0.00100
Br1032     Br  0.61731027  0.26170555  0.82512342    -0.04300
C1033       C  0.62160356  0.12514280  0.05865461    -0.11700
C1034       C  0.63664242  0.11236629  0.04631238     0.03800
C1035       C  0.63603583  0.11296885  0.02326756    -0.12200
C1036       C  0.62076056  0.12627938  0.01215083     0.18600
C1037       C  0.60550437  0.13877098  0.02441801    -0.09300
C1038       C  0.60592283  0.13800847  0.04748878    -0.02200
H1039       H  0.64755688  0.10299680  0.01392644     0.05200
C1040       C  0.62098572  0.12669608  0.98776272     0.20600
H1041       H  0.59432728  0.14796965  0.05674726     0.10300
C1042       C  0.60350229  0.11710441  0.97607924    -0.15600
C1043       C  0.60355432  0.11648058  0.95299757     0.03300
C1044       C  0.62157345  0.12546277  0.94113550    -0.10900
C1045       C  0.63905758  0.13505382  0.95301202    -0.01000
C1046       C  0.63882010  0.13582098  0.97606446    -0.06100
H1047       H  0.58983552  0.10983185  0.98501620     0.06300
H1048       H  0.65290773  0.14227605  0.94433467     0.09700
Br1049     Br  0.58455824  0.15789028  0.01041748    -0.05800
Br1050     Br  0.65757318  0.09290123  0.05989775    -0.02800
Br1051     Br  0.57893854  0.10215302  0.93913467     0.00100
Br1052     Br  0.66288217  0.15013076  0.99087354    -0.04300
C1053       C  0.63419325  0.80897311  0.87857284    -0.11700
C1054       C  0.65389013  0.79663623  0.87581942     0.03800
C1055       C  0.65317811  0.77358172  0.87640757    -0.12200
C1056       C  0.63318237  0.76232879  0.87902574     0.18600
C1057       C  0.61353133  0.77443871  0.88116831    -0.09300
C1058       C  0.61417293  0.79747749  0.88108028    -0.02200
H1059       H  0.66834626  0.76430884  0.87461537     0.05200
C1060       C  0.63312796  0.73795862  0.87957797     0.20600
H1061       H  0.59881531  0.80640221  0.88289689     0.10300
C1062       C  0.62670100  0.72714585  0.89896169    -0.15600
C1063       C  0.62559863  0.70411951  0.89992780     0.03300
C1064       C  0.63133982  0.69141101  0.88116120    -0.10900
C1065       C  0.63821825  0.70241215  0.86192347    -0.01000
C1066       C  0.63913713  0.72541209  0.86100764    -0.06100
H1067       H  0.62215696  0.73675024  0.91334720     0.06300
H1068       H  0.64278674  0.69310593  0.84736243     0.09700
Br1069     Br  0.58528800  0.76026489  0.88334442    -0.05800
Br1070     Br  0.68234254  0.80955751  0.87036347    -0.02800
Br1071     Br  0.61498363  0.69165054  0.92706483     0.00100
Br1072     Br  0.64774843  0.73886669  0.83367640    -0.04300
C1073       C  0.63242347  0.94174189  0.87667157    -0.11700
C1074       C  0.61774301  0.95336336  0.86287840     0.03800
C1075       C  0.61850864  0.97640007  0.86222618    -0.12200
C1076       C  0.63375689  0.98817700  0.87505075     0.18600
C1077       C  0.64850451  0.97659799  0.88872993    -0.09300
C1078       C  0.64789489  0.95355090  0.88925496    -0.02200
H1079       H  0.60710911  0.98522346  0.85167404     0.05200
C1080       C  0.63272608  0.01251009  0.87507964     0.20600
H1081       H  0.65923384  0.94482454  0.89995029     0.10300
C1082       C  0.61399155  0.02264706  0.88395459    -0.15600
C1083       C  0.61182418  0.04557391  0.88405475     0.03300
C1084       C  0.62883564  0.05891263  0.87527962    -0.10900
C1085       C  0.64765443  0.04865585  0.86639986    -0.01000
C1086       C  0.64955317  0.02564497  0.86594598    -0.06100
H1087       H  0.60094127  0.01259078  0.89090429     0.06300
H1088       H  0.66071688  0.05855155  0.85926520     0.09700
Br1089     Br  0.66888147  0.99146188  0.90789381    -0.05800
Br1090     Br  0.59720873  0.93877580  0.84362936    -0.02800
Br1091     Br  0.58551877  0.05725051  0.89721326     0.00100
Br1092     Br  0.67475340  0.01292986  0.85162969    -0.04300
C1093       C  0.62739430  0.81070050  0.12795735    -0.11700
C1094       C  0.60864758  0.79731669  0.13210140     0.03800
C1095       C  0.61049356  0.77434096  0.13123946    -0.12200
C1096       C  0.63065559  0.76417994  0.12649573     0.18600
C1097       C  0.64932859  0.77730465  0.12238923    -0.09300
C1098       C  0.64761734  0.80030341  0.12322589    -0.02200
H1099       H  0.59606908  0.76425536  0.13440515     0.05200
C1100       C  0.63149678  0.73985340  0.12535935     0.20600
H1101       H  0.66219602  0.81007355  0.11985733     0.10300
C1102       C  0.62072215  0.72909382  0.10794945    -0.15600
C1103       C  0.61998758  0.70605359  0.10685483     0.03300
C1104       C  0.63028854  0.69334643  0.12344393    -0.10900
C1105       C  0.64093359  0.70422034  0.14095677    -0.01000
C1106       C  0.64155068  0.72726347  0.14204781    -0.06100
H1107       H  0.61250327  0.73871603  0.09533631     0.06300
H1108       H  0.64874664  0.69475258  0.15393415     0.09700
Br1109     Br  0.67728523  0.76458418  0.11479779    -0.05800
Br1110     Br  0.58004280  0.80871304  0.13962722    -0.02800
Br1111     Br  0.60310400  0.69316150  0.08332424     0.00100
Br1112     Br  0.65535751  0.74077193  0.16714902    -0.04300
C1113       C  0.62287392  0.94331461  0.13138596    -0.11700
C1114       C  0.63412510  0.95525819  0.14788112     0.03800
C1115       C  0.63348336  0.97832616  0.14780149    -0.12200
C1116       C  0.62165949  0.98972007  0.13152746     0.18600
C1117       C  0.61018423  0.97775924  0.11522340    -0.09300
C1118       C  0.61065202  0.95471342  0.11542260    -0.02200
H1119       H  0.64224310  0.98743295  0.16045886     0.05200
C1120       C  0.62238741  0.01405258  0.13116514     0.20600
H1121       H  0.60200013  0.94566397  0.10264875     0.10300
C1122       C  0.64213320  0.02456595  0.12540945    -0.15600
C1123       C  0.64337684  0.04756607  0.12387417     0.03300
C1124       C  0.62438392  0.06052126  0.12806457    -0.10900
C1125       C  0.60476393  0.04977915  0.13435614    -0.01000
C1126       C  0.60371644  0.02682995  0.13612847    -0.06100
H1127       H  0.65661429  0.01474850  0.12177143     0.06300
H1128       H  0.59011872  0.05925999  0.13817478     0.09700
Br1129     Br  0.59473784  0.99213671  0.09163917    -0.05800
Br1130     Br  0.64956066  0.94087420  0.17148784    -0.02800
Br1131     Br  0.67142302  0.05963275  0.11537800     0.00100
Br1132     Br  0.57664009  0.01372237  0.14601509    -0.04300
C1133       C  0.62818713  0.87757332  0.06267045    -0.11700
C1134       C  0.61526834  0.86289761  0.04998299     0.03800
C1135       C  0.61677552  0.86318327  0.02695754    -0.12200
C1136       C  0.63102815  0.87786386  0.01621978     0.18600
C1137       C  0.64389220  0.89256707  0.02878994    -0.09300
C1138       C  0.64256431  0.89219253  0.05185388    -0.02200
H1139       H  0.60690984  0.85176380  0.01735547     0.05200
C1140       C  0.63188143  0.87776844  0.99186442     0.20600
H1141       H  0.65250653  0.90362667  0.06135777     0.10300
C1142       C  0.61509311  0.88829450  0.98004517    -0.15600
C1143       C  0.61495702  0.88813940  0.95696785     0.03300
C1144       C  0.63194137  0.87720637  0.94526883    -0.10900
C1145       C  0.64884667  0.86680284  0.95724166    -0.01000
C1146       C  0.64880448  0.86685843  0.98034451    -0.06100
H1147       H  0.60205256  0.89675729  0.98885984     0.06300
H1148       H  0.66191728  0.85820483  0.94861368     0.09700
Br1149     Br  0.66297542  0.91376290  0.01507166    -0.05800
Br1150     Br  0.59638038  0.84112934  0.06314389    -0.02800
Br1151     Br  0.59169267  0.90416859  0.94265356     0.00100
Br1152     Br  0.67171795  0.85125480  0.99555349    -0.04300
C1153       C  0.19183092  0.38136246  0.87707598    -0.11700
C1154       C  0.20414308  0.40040377  0.88283636     0.03800
C1155       C  0.22721942  0.39969395  0.88257371    -0.12200
C1156       C  0.23838665  0.38036125  0.87671732     0.18600
C1157       C  0.22631715  0.36136393  0.87121202    -0.09300
C1158       C  0.20329647  0.36196585  0.87140339    -0.02200
H1159       H  0.23654330  0.41427915  0.88708363     0.05200
C1160       C  0.26267506  0.38010813  0.87691130     0.20600
H1161       H  0.19435110  0.34713455  0.86695940     0.10300
C1162       C  0.27371361  0.37644068  0.89683122    -0.15600
C1163       C  0.29674778  0.37539572  0.89760714     0.03300
C1164       C  0.30917739  0.37791897  0.87794080    -0.10900
C1165       C  0.29784002  0.38190453  0.85805462    -0.01000
C1166       C  0.27485486  0.38312447  0.85746461    -0.06100
H1167       H  0.26429592  0.37420802  0.91185743     0.06300
H1168       H  0.30684689  0.38421585  0.84280182     0.09700
Br1169     Br  0.24066785  0.33418932  0.86358969    -0.05800
Br1170     Br  0.19092670  0.42762580  0.89221471    -0.02800
Br1171     Br  0.30955699  0.37016387  0.92612564     0.00100
Br1172     Br  0.26073380  0.38916750  0.82980536    -0.04300
C1173       C  0.18227842  0.38408456  0.12145595    -0.11700
C1174       C  0.19438688  0.40404986  0.12331820     0.03800
C1175       C  0.21746062  0.40368524  0.12204289    -0.12200
C1176       C  0.22883945  0.38383622  0.11895168     0.18600
C1177       C  0.21696490  0.36406045  0.11688421    -0.09300
C1178       C  0.19397599  0.36428906  0.11809104    -0.02200
H1179       H  0.22663211  0.41894023  0.12380259     0.05200
C1180       C  0.25316302  0.38377259  0.11910216     0.20600
H1181       H  0.18525785  0.34876663  0.11646267     0.10300
C1182       C  0.26413465  0.37925740  0.13887430    -0.15600
C1183       C  0.28714589  0.37796979  0.13967439     0.03300
C1184       C  0.29972072  0.38132414  0.12021569    -0.10900
C1185       C  0.28846993  0.38604692  0.10042867    -0.01000
C1186       C  0.26543209  0.38728945  0.09978375    -0.06100
H1187       H  0.25465451  0.37639764  0.15375738     0.06300
H1188       H  0.29758626  0.38879083  0.08531314     0.09700
Br1189     Br  0.23156802  0.33631258  0.11257665    -0.05800
Br1190     Br  0.18103591  0.43234965  0.12836251    -0.02800
Br1191     Br  0.29968450  0.37072694  0.16786907     0.00100
Br1192     Br  0.25129810  0.39341035  0.07215555    -0.04300
C1193       C  0.12238901  0.38029087  0.94183184    -0.11700
C1194       C  0.10860418  0.39528640  0.95315186     0.03800
C1195       C  0.10771412  0.39495278  0.97620320    -0.12200
C1196       C  0.12044728  0.37996889  0.98830548     0.18600
C1197       C  0.13433067  0.36513022  0.97711439    -0.09300
C1198       C  0.13507510  0.36524161  0.95403832    -0.02200
H1199       H  0.09688681  0.40631226  0.98475831     0.05200
C1200       C  0.11880607  0.37994210  0.01259654     0.20600
H1201       H  0.14587137  0.35376226  0.94560978     0.10300
C1202       C  0.10625341  0.36358649  0.02311104    -0.15600
C1203       C  0.10416713  0.36328460  0.04611880     0.03300
C1204       C  0.11490747  0.37951488  0.05891492    -0.10900
C1205       C  0.12712075  0.39607429  0.04826220    -0.01000
C1206       C  0.12914558  0.39636966  0.02531327    -0.06100
H1207       H  0.09787661  0.35116217  0.01334352     0.06300
H1208       H  0.13550663  0.40862331  0.05786590     0.09700
Br1209     Br  0.15301284  0.34497736  0.99276088    -0.05800
Br1210     Br  0.08952700  0.41560207  0.93813332    -0.02800
Br1211     Br  0.08526861  0.34136816  0.05898586     0.00100
Br1212     Br  0.14663778  0.41917650  0.01206878    -0.04300
C1213       C  0.80877126  0.37243284  0.87608320    -0.11700
C1214       C  0.79686108  0.39210692  0.87169395     0.03800
C1215       C  0.77383908  0.39204866  0.87267453    -0.12200
C1216       C  0.76222103  0.37281619  0.87785779     0.18600
C1217       C  0.77381930  0.35320459  0.88200463    -0.09300
C1218       C  0.79687091  0.35312625  0.88115599    -0.02200
H1219       H  0.76486696  0.40709195  0.86911568     0.05200
C1220       C  0.73793389  0.37332047  0.87749304     0.20600
H1221       H  0.80548326  0.33784200  0.88450339     0.10300
C1222       C  0.72715997  0.37290850  0.85711055    -0.15600
C1223       C  0.70415983  0.37347972  0.85581478     0.03300
C1224       C  0.69140484  0.37441215  0.87542506    -0.10900
C1225       C  0.70248467  0.37509884  0.89585927    -0.01000
C1226       C  0.72550685  0.37468723  0.89698202    -0.06100
H1227       H  0.73677947  0.37211877  0.84206313     0.06300
H1228       H  0.69325994  0.37607542  0.91112596     0.09700
Br1229     Br  0.75874642  0.32607866  0.88827920    -0.05800
Br1230     Br  0.81032954  0.41959375  0.86333184    -0.02800
Br1231     Br  0.69193568  0.37303844  0.82655555     0.00100
Br1232     Br  0.73933687  0.37656064  0.92538917    -0.04300
C1233       C  0.94177230  0.36951629  0.87498410    -0.11700
C1234       C  0.95494094  0.35323961  0.88522452     0.03800
C1235       C  0.97798420  0.35496456  0.88446287    -0.12200
C1236       C  0.98824756  0.37263841  0.87361277     0.18600
C1237       C  0.97519066  0.38849200  0.86288097    -0.09300
C1238       C  0.95223155  0.38695920  0.86381697    -0.02200
H1239       H  0.98797294  0.34263571  0.89266792     0.05200
C1240       C  0.01257977  0.37422896  0.87361636     0.20600
H1241       H  0.94248489  0.39941839  0.85552099     0.10300
C1242       C  0.02483741  0.35933124  0.86088716    -0.15600
C1243       C  0.04789308  0.36030418  0.86052583     0.03300
C1244       C  0.05906213  0.37640465  0.87316862    -0.10900
C1245       C  0.04671819  0.39146884  0.88570076    -0.01000
C1246       C  0.02367702  0.39034202  0.88618639    -0.06100
H1247       H  0.01639754  0.34701696  0.85103223     0.06300
H1248       H  0.05504557  0.40380856  0.89561599     0.09700
Br1249     Br  0.98796318  0.41218651  0.84621613    -0.05800
Br1250     Br  0.94272762  0.32903924  0.90154557    -0.02800
Br1251     Br  0.06308008  0.34008218  0.84144977     0.00100
Br1252     Br  0.00810324  0.41052061  0.90496320    -0.04300
C1253       C  0.80030053  0.37419385  0.12570896    -0.11700
C1254       C  0.78822245  0.39091688  0.13660813     0.03800
C1255       C  0.76519576  0.39074206  0.13585844    -0.12200
C1256       C  0.75387698  0.37406379  0.12458713     0.18600
C1257       C  0.76575959  0.35718082  0.11404994    -0.09300
C1258       C  0.78881175  0.35728010  0.11473629    -0.02200
H1259       H  0.75603153  0.40357793  0.14427456     0.05200
C1260       C  0.72961540  0.37451778  0.12417272     0.20600
H1261       H  0.79778022  0.34428685  0.10635946     0.10300
C1262       C  0.71885358  0.38590869  0.10723355    -0.15600
C1263       C  0.69582515  0.38697715  0.10653387     0.03300
C1264       C  0.68321014  0.37635998  0.12304998    -0.10900
C1265       C  0.69418032  0.36521383  0.14015510    -0.01000
C1266       C  0.71718690  0.36423321  0.14079181    -0.06100
H1267       H  0.72844907  0.39418063  0.09462451     0.06300
H1268       H  0.68483165  0.35702237  0.15299239     0.09700
Br1269     Br  0.75107599  0.33381735  0.09851731    -0.05800
Br1270     Br  0.80193995  0.41364858  0.15397245    -0.02800
Br1271     Br  0.68290160  0.40439682  0.08344650     0.00100
Br1272     Br  0.73104081  0.34871039  0.16460879    -0.04300
C1273       C  0.05007968  0.37543608  0.12942034    -0.11700
C1274       C  0.03821236  0.38699066  0.14571658     0.03800
C1275       C  0.01521142  0.38546162  0.14632952    -0.12200
C1276       C  0.00380839  0.37250223  0.13089213     0.18600
C1277       C  0.01573146  0.36072742  0.11478447    -0.09300
C1278       C  0.03873292  0.36202144  0.11436682    -0.02200
H1279       H  0.00614823  0.39455545  0.15876727     0.05200
C1280       C  0.97947726  0.37291908  0.13074685     0.20600
H1281       H  0.04775483  0.35313740  0.10174639     0.10300
C1282       C  0.96884196  0.39250135  0.12476709    -0.15600
C1283       C  0.94587199  0.39359540  0.12342078     0.03300
C1284       C  0.93302836  0.37456644  0.12789234    -0.10900
C1285       C  0.94384568  0.35508161  0.13438602    -0.01000
C1286       C  0.96681902  0.35423585  0.13612108    -0.06100
H1287       H  0.97854907  0.40700305  0.12084601     0.06300
H1288       H  0.93439974  0.34047352  0.13849551     0.09700
Br1289     Br  0.00133356  0.34397636  0.09206782    -0.05800
Br1290     Br  0.05270395  0.40423025  0.16801824    -0.02800
Br1291     Br  0.93370176  0.42155190  0.11478657     0.00100
Br1292     Br  0.98011803  0.32754653  0.14671131    -0.04300
C1293       C  0.87394906  0.37250515  0.94213409    -0.11700
C1294       C  0.88194605  0.35524287  0.95559242     0.03800
C1295       C  0.87991646  0.35668532  0.97849607    -0.12200
C1296       C  0.86974734  0.37489448  0.98845596     0.18600
C1297       C  0.86197369  0.39225190  0.97515243    -0.09300
C1298       C  0.86419664  0.39098561  0.95222212    -0.02200
H1299       H  0.88638070  0.34349587  0.98866958     0.05200
C1300       C  0.86806870  0.37558296  0.01277260     0.20600
H1301       H  0.85781525  0.40433214  0.94220971     0.10300
C1302       C  0.87981227  0.39174074  0.02445927    -0.15600
C1303       C  0.87970279  0.39211067  0.04751668     0.03300
C1304       C  0.86776165  0.37593705  0.05928970    -0.10900
C1305       C  0.85608235  0.35972888  0.04754271    -0.01000
C1306       C  0.85605693  0.35950927  0.02449492    -0.06100
H1307       H  0.88949526  0.40385898  0.01557398     0.06300
H1308       H  0.84672361  0.34728914  0.05633107     0.09700
Br1309     Br  0.84742536  0.41756692  0.98740809    -0.05800
Br1310     Br  0.89667994  0.32966963  0.94413220    -0.02800
Br1311     Br  0.89754526  0.41406757  0.06179675     0.00100
Br1312     Br  0.83894317  0.33724133  0.00980606    -0.04300
C1313       C  0.37827381  0.69454620  0.12485067    -0.11700
C1314       C  0.39022732  0.70704054  0.14049825     0.03800
C1315       C  0.38902297  0.73009043  0.14012642    -0.12200
C1316       C  0.37597103  0.74097207  0.12448128     0.18600
C1317       C  0.36420166  0.72857784  0.10877342    -0.09300
C1318       C  0.36546944  0.70557197  0.10901799    -0.02200
H1319       H  0.39838865  0.73960329  0.15202942     0.05200
C1320       C  0.37545101  0.76529423  0.12431378     0.20600
H1321       H  0.35620589  0.69624745  0.09688857     0.10300
C1322       C  0.39367498  0.77685869  0.11609500    -0.15600
C1323       C  0.39368271  0.79992698  0.11520835     0.03300
C1324       C  0.37506512  0.81183911  0.12272485    -0.10900
C1325       C  0.35689852  0.80005639  0.13110603    -0.01000
C1326       C  0.35704828  0.77702226  0.13209104    -0.06100
H1327       H  0.40787417  0.76783593  0.11006955     0.06300
H1328       H  0.34256979  0.80879289  0.13722536     0.09700
Br1329     Br  0.34656471  0.74237203  0.08642266    -0.05800
Br1330     Br  0.40950694  0.69380873  0.16184828    -0.02800
Br1331     Br  0.41923129  0.81372528  0.10252738     0.00100
Br1332     Br  0.33203403  0.76226328  0.14469274    -0.04300
C1333       C  0.37348464  0.80940697  0.87096945    -0.11700
C1334       C  0.35377253  0.79688291  0.86907707     0.03800
C1335       C  0.35475453  0.77381854  0.86884097    -0.12200
C1336       C  0.37496359  0.76283020  0.87026536     0.18600
C1337       C  0.39457269  0.77506191  0.87161477    -0.09300
C1338       C  0.39374051  0.79809387  0.87204226    -0.02200
H1339       H  0.33963998  0.76434929  0.86754600     0.05200
C1340       C  0.37529224  0.73853712  0.87038057     0.20600
H1341       H  0.40909725  0.80714474  0.87329599     0.10300
C1342       C  0.37573351  0.72713963  0.85032708    -0.15600
C1343       C  0.37637333  0.70406913  0.84979209     0.03300
C1344       C  0.37659897  0.69195065  0.86984007    -0.10900
C1345       C  0.37598098  0.70368084  0.88990237    -0.01000
C1346       C  0.37527868  0.72671232  0.89026679    -0.06100
H1347       H  0.37565939  0.73629862  0.83498111     0.06300
H1348       H  0.37601116  0.69495958  0.90548639     0.09700
Br1349     Br  0.42282138  0.76088373  0.87281551    -0.05800
Br1350     Br  0.32489285  0.80960619  0.86618878    -0.02800
Br1351     Br  0.37683920  0.69083309  0.82095686     0.00100
Br1352     Br  0.37421520  0.74143340  0.91827745    -0.04300
C1353       C  0.37495243  0.87695682  0.93892534    -0.11700
C1354       C  0.36116020  0.89165365  0.95057435     0.03800
C1355       C  0.36122994  0.89162544  0.97361586    -0.12200
C1356       C  0.37509437  0.87736528  0.98530368     0.18600
C1357       C  0.38935526  0.86316826  0.97376803    -0.09300
C1358       C  0.38925888  0.86309068  0.95069894    -0.02200
H1359       H  0.35056648  0.90290085  0.98248232     0.05200
C1360       C  0.37437344  0.87755891  0.00956159     0.20600
H1361       H  0.40011467  0.85191674  0.94194158     0.10300
C1362       C  0.35912458  0.86404520  0.02045583    -0.15600
C1363       C  0.35782080  0.86398306  0.04348744     0.03300
C1364       C  0.37204129  0.87763926  0.05591115    -0.10900
C1365       C  0.38736528  0.89107575  0.04488124    -0.01000
C1366       C  0.38846936  0.89125529  0.02186412    -0.06100
H1367       H  0.34830439  0.85341022  0.01098169     0.06300
H1368       H  0.39833573  0.90169522  0.05419767     0.09700
Br1369     Br  0.40905322  0.84361725  0.98891767    -0.05800
Br1370     Br  0.34313817  0.91321456  0.93598060    -0.02800
Br1371     Br  0.33733664  0.84391818  0.05695593     0.00100
Br1372     Br  0.40924616  0.91056495  0.00783301    -0.04300
C1373       C  0.37228867  0.19196151  0.87284765    -0.11700
C1374       C  0.38918812  0.20412123  0.86235917     0.03800
C1375       C  0.38918527  0.22716698  0.86352034    -0.12200
C1376       C  0.37260491  0.23841304  0.87500662     0.18600
C1377       C  0.35564313  0.22638793  0.88529074    -0.09300
C1378       C  0.35550807  0.20334507  0.88405017    -0.02200
H1379       H  0.40209593  0.23639965  0.85529881     0.05200
C1380       C  0.37298234  0.26273811  0.87554657     0.20600
H1381       H  0.34251798  0.19427351  0.89232172     0.10300
C1382       C  0.35911766  0.27447461  0.86129128    -0.15600
C1383       C  0.35930912  0.29754543  0.86101822     0.03300
C1384       C  0.37354596  0.30921915  0.87529265    -0.10900
C1385       C  0.38719209  0.29739419  0.88979154    -0.01000
C1386       C  0.38713889  0.27430672  0.88985389    -0.06100
H1387       H  0.34807991  0.26561673  0.85035644     0.06300
H1388       H  0.39818626  0.30613949  0.90085966     0.09700
Br1389     Br  0.33279539  0.24076527  0.90177542    -0.05800
Br1390     Br  0.41198537  0.19041692  0.84516578    -0.02800
Br1391     Br  0.33884068  0.31214371  0.84178743     0.00100
Br1392     Br  0.40649825  0.25919729  0.90978264    -0.04300
C1393       C  0.37249445  0.05938994  0.87616451    -0.11700
C1394       C  0.38721731  0.04727214  0.86281550     0.03800
C1395       C  0.38740167  0.02425086  0.86389947    -0.12200
C1396       C  0.37310864  0.01299526  0.87811478     0.18600
C1397       C  0.35856312  0.02500743  0.89163499    -0.09300
C1398       C  0.35819013  0.04807040  0.89043738    -0.02200
H1399       H  0.39845798  0.01503939  0.85329800     0.05200
C1400       C  0.37306036  0.98868231  0.87778913     0.20600
H1401       H  0.34697052  0.05719980  0.90093318     0.10300
C1402       C  0.38962762  0.97713061  0.88898735    -0.15600
C1403       C  0.39051117  0.95406212  0.88817618     0.03300
C1404       C  0.37474690  0.94226718  0.87565682    -0.10900
C1405       C  0.35802704  0.95397027  0.86471532    -0.01000
C1406       C  0.35714456  0.97697535  0.86563992    -0.06100
H1407       H  0.40181227  0.98611092  0.89851147     0.06300
H1408       H  0.34573796  0.94520637  0.85512758     0.09700
Br1409     Br  0.33926516  0.01053163  0.91211031    -0.05800
Br1410     Br  0.40632100  0.06113457  0.84167975    -0.02800
Br1411     Br  0.41264523  0.93972089  0.90569859     0.00100
Br1412     Br  0.33425095  0.99180572  0.84962582    -0.04300
C1413       C  0.37093695  0.19491461  0.12260447    -0.11700
C1414       C  0.38646040  0.20804737  0.13400965     0.03800
C1415       C  0.38502216  0.23107210  0.13291299    -0.12200
C1416       C  0.36847132  0.24126643  0.12042783     0.18600
C1417       C  0.35331039  0.22824417  0.10868159    -0.09300
C1418       C  0.35448360  0.20526754  0.11001024    -0.02200
H1419       H  0.39673584  0.24109384  0.14198097     0.05200
C1420       C  0.36719756  0.26553401  0.11992753     0.20600
H1421       H  0.34258265  0.19543032  0.10098545     0.10300
C1422       C  0.37740950  0.27697479  0.10268805    -0.15600
C1423       C  0.37685794  0.30002099  0.10186767     0.03300
C1424       C  0.36582252  0.31199978  0.11859225    -0.10900
C1425       C  0.35561687  0.30038757  0.13586702    -0.01000
C1426       C  0.35616571  0.27732833  0.13656800    -0.06100
H1427       H  0.38608400  0.26790772  0.08995536     0.06300
H1428       H  0.34706783  0.30926405  0.14881346     0.09700
Br1429     Br  0.33071578  0.24120108  0.09074975    -0.05800
Br1430     Br  0.40906364  0.19566474  0.15238751    -0.02800
Br1431     Br  0.39288309  0.31394715  0.07834009     0.00100
Br1432     Br  0.34153595  0.26252104  0.16039597    -0.04300
C1433       C  0.36981348  0.06205139  0.12481169    -0.11700
C1434       C  0.38721538  0.04900289  0.13319359     0.03800
C1435       C  0.38604598  0.02597632  0.13175050    -0.12200
C1436       C  0.36778611  0.01550742  0.12213895     0.18600
C1437       C  0.35028242  0.02840065  0.11409056    -0.09300
C1438       C  0.35138391  0.05142497  0.11548927    -0.02200
H1439       H  0.39940741  0.01611891  0.13833586     0.05200
C1440       C  0.36725687  0.99111096  0.12109548     0.20600
H1441       H  0.33788792  0.06107303  0.10887698     0.10300
C1442       C  0.35267633  0.97944206  0.13476188    -0.15600
C1443       C  0.35270279  0.95633337  0.13513479     0.03300
C1444       C  0.36771730  0.94454354  0.12180921    -0.10900
C1445       C  0.38217143  0.95627576  0.10803224    -0.01000
C1446       C  0.38188993  0.97934519  0.10743931    -0.06100
H1447       H  0.34151645  0.98837933  0.14548483     0.06300
H1448       H  0.39359004  0.94744044  0.09749578     0.09700
Br1449     Br  0.32493482  0.01532640  0.10034878    -0.05800
Br1450     Br  0.41242755  0.06129721  0.14793772    -0.02800
Br1451     Br  0.33305357  0.94189058  0.15532909     0.00100
Br1452     Br  0.40133411  0.99409282  0.08728907    -0.04300
C1453       C  0.36971738  0.12770639  0.05812340    -0.11700
C1454       C  0.35220284  0.11828548  0.04589500     0.03800
C1455       C  0.35268121  0.11884388  0.02282781    -0.12200
C1456       C  0.37035609  0.12856808  0.01156592     0.18600
C1457       C  0.38764221  0.13827314  0.02366493    -0.09300
C1458       C  0.38732030  0.13759118  0.04671445    -0.02200
H1459       H  0.33935189  0.11131602  0.01358412     0.05200
C1460       C  0.37051025  0.12818554  0.98719896     0.20600
H1461       H  0.40073950  0.14518906  0.05576177     0.10300
C1462       C  0.35513505  0.14093861  0.97555969    -0.15600
C1463       C  0.35479115  0.14087657  0.95246458     0.03300
C1464       C  0.37014510  0.12790559  0.94069269    -0.10900
C1465       C  0.38543267  0.11510224  0.95242697    -0.01000
C1466       C  0.38549828  0.11489909  0.97546614    -0.06100
H1467       H  0.34348747  0.15112600  0.98450117     0.06300
H1468       H  0.39707793  0.10479313  0.94362353     0.09700
Br1469     Br  0.41162154  0.15329658  0.00944719    -0.05800
Br1470     Br  0.32780810  0.10322873  0.05940684    -0.02800
Br1471     Br  0.33387289  0.15976073  0.93803478     0.00100
Br1472     Br  0.40562872  0.09540678  0.99015937    -0.04300
C1473       C  0.87923711  0.05473960  0.62972610    -0.11700
C1474       C  0.88555966  0.04201759  0.61117421     0.03800
C1475       C  0.88409079  0.01898891  0.61199688    -0.12200
C1476       C  0.87642951  0.00822076  0.63096050     0.18600
C1477       C  0.87038401  0.02077270  0.64950835    -0.09300
C1478       C  0.87181923  0.04375563  0.64877748    -0.02200
H1479       H  0.88914541  0.00936263  0.59780050     0.05200
C1480       C  0.87542113  0.98386612  0.63127416     0.20600
H1481       H  0.86680833  0.05307795  0.66318198     0.10300
C1482       C  0.88965320  0.97219240  0.64526643    -0.15600
C1483       C  0.88931319  0.94913563  0.64589280     0.03300
C1484       C  0.87459637  0.93739548  0.63220391    -0.10900
C1485       C  0.86058872  0.94909685  0.61797720    -0.01000
C1486       C  0.86081400  0.97215258  0.61750893    -0.06100
H1487       H  0.90123045  0.98109028  0.65559264     0.06300
H1488       H  0.84919559  0.94026599  0.60738923     0.09700
Br1489     Br  0.85939420  0.00734495  0.67598864    -0.05800
Br1490     Br  0.89731597  0.05457024  0.58456216    -0.02800
Br1491     Br  0.91038347  0.93463326  0.66453595     0.00100
Br1492     Br  0.84040021  0.98688901  0.59834535    -0.04300
C1493       C  0.06402654  0.12176836  0.62537131    -0.11700
C1494       C  0.05117061  0.11650082  0.60656667     0.03800
C1495       C  0.02817436  0.11651514  0.60803547    -0.12200
C1496       C  0.01749761  0.12202266  0.62777059     0.18600
C1497       C  0.03017882  0.12722338  0.64650731    -0.09300
C1498       C  0.05318461  0.12695097  0.64522281    -0.02200
H1499       H  0.01849332  0.11218491  0.59363813     0.05200
C1500       C  0.99313417  0.12190513  0.62849019     0.20600
H1501       H  0.06261777  0.13121712  0.65979318     0.10300
C1502       C  0.98227010  0.10662833  0.64206932    -0.15600
C1503       C  0.95924271  0.10591462  0.64299982     0.03300
C1504       C  0.94673428  0.12054064  0.62998770    -0.10900
C1505       C  0.95759697  0.13548273  0.61605354    -0.01000
C1506       C  0.98060550  0.13637123  0.61532403    -0.06100
H1507       H  0.99177394  0.09509329  0.65185086     0.06300
H1508       H  0.94813164  0.14682334  0.60600310     0.09700
Br1509     Br  0.01689133  0.13573846  0.67395977    -0.05800
Br1510     Br  0.06344932  0.10847358  0.57845367    -0.02800
Br1511     Br  0.94579136  0.08370883  0.66113122     0.00100
Br1512     Br  0.99407499  0.15819066  0.59673748    -0.04300
C1513       C  0.93904653  0.87126215  0.62856442    -0.11700
C1514       C  0.95067366  0.88296852  0.61207758     0.03800
C1515       C  0.97374302  0.88317350  0.61223225    -0.12200
C1516       C  0.98558421  0.87193711  0.62857542     0.18600
C1517       C  0.97407913  0.86025776  0.64498939    -0.09300
C1518       C  0.95102034  0.86006293  0.64493734    -0.02200
H1519       H  0.98252933  0.89243441  0.59972050     0.05200
C1520       C  0.00992044  0.87309722  0.62856079     0.20600
H1521       H  0.94241309  0.85093479  0.65766507     0.10300
C1522       C  0.02067361  0.88578829  0.64466563    -0.15600
C1523       C  0.04370858  0.88727156  0.64514934     0.03300
C1524       C  0.05635586  0.87588645  0.62925490    -0.10900
C1525       C  0.04547155  0.86355285  0.61289128    -0.01000
C1526       C  0.02247415  0.86203116  0.61249538    -0.06100
H1527       H  0.01106202  0.89467550  0.65683700     0.06300
H1528       H  0.05491755  0.85461322  0.60062734     0.09700
Br1529     Br  0.98920216  0.84389671  0.66744021    -0.05800
Br1530     Br  0.93624355  0.90032878  0.58986462    -0.02800
Br1531     Br  0.05678467  0.90610749  0.66701984     0.00100
Br1532     Br  0.00896598  0.84396680  0.59025689    -0.04300
C1533       C  0.13205587  0.05679874  0.62363668    -0.11700
C1534       C  0.12185369  0.04400020  0.60697736     0.03800
C1535       C  0.12234146  0.02095433  0.60823305    -0.12200
C1536       C  0.13282663  0.01027497  0.62580054     0.18600
C1537       C  0.14343974  0.02286501  0.64213382    -0.09300
C1538       C  0.14288840  0.04591489  0.64103917    -0.02200
H1539       H  0.11405457  0.01127411  0.59568095     0.05200
C1540       C  0.13159677  0.98600550  0.62721337     0.20600
H1541       H  0.15102911  0.05536485  0.65385465     0.10300
C1542       C  0.14628636  0.97310499  0.61487420    -0.15600
C1543       C  0.14478184  0.95005209  0.61513854     0.03300
C1544       C  0.12823634  0.93967649  0.62777524    -0.10900
C1545       C  0.11387991  0.95261795  0.64048977    -0.01000
C1546       C  0.11535996  0.97563828  0.64016329    -0.06100
H1547       H  0.15896764  0.98100530  0.60506897     0.06300
H1548       H  0.10119641  0.94480212  0.65036706     0.09700
Br1549     Br  0.15881417  0.00920145  0.66616374    -0.05800
Br1550     Br  0.10566353  0.05665351  0.58289467    -0.02800
Br1551     Br  0.16652094  0.93347785  0.59915424     0.00100
Br1552     Br  0.09454771  0.99233627  0.65717144    -0.04300
C1553       C  0.62430848  0.87890045  0.31260060    -0.11700
C1554       C  0.61269036  0.86225308  0.30107113     0.03800
C1555       C  0.61278378  0.86202878  0.27799523    -0.12200
C1556       C  0.62430479  0.87810756  0.26608335     0.18600
C1557       C  0.63584634  0.89472606  0.27745283    -0.09300
C1558       C  0.63566738  0.89511445  0.30052690    -0.02200
H1559       H  0.60370912  0.84932360  0.26926487     0.05200
C1560       C  0.62393790  0.87736714  0.24177071     0.20600
H1561       H  0.64472122  0.90796144  0.30906553     0.10300
C1562       C  0.60828203  0.88989431  0.23030709    -0.15600
C1563       C  0.60760687  0.88969647  0.20722556     0.03300
C1564       C  0.62293962  0.87683754  0.19528725    -0.10900
C1565       C  0.63857957  0.86430470  0.20689892    -0.01000
C1566       C  0.63903139  0.86434280  0.22995376    -0.06100
H1567       H  0.59667763  0.90001667  0.23937683     0.06300
H1568       H  0.65042537  0.85431223  0.19800059     0.09700
Br1569     Br  0.65235302  0.91691521  0.26206744    -0.05800
Br1570     Br  0.59525910  0.84018182  0.31566233    -0.02800
Br1571     Br  0.58638083  0.90843703  0.19307397     0.00100
Br1572     Br  0.66058734  0.84651667  0.24469329    -0.04300
C1573       C  0.62384163  0.87717135  0.69514631    -0.11700
C1574       C  0.62242038  0.85730100  0.70744203     0.03800
C1575       C  0.62463983  0.85783402  0.73042861    -0.12200
C1576       C  0.62844921  0.87770766  0.74157829     0.18600
C1577       C  0.63042796  0.89735911  0.72949451    -0.09300
C1578       C  0.62794637  0.89701262  0.70658646    -0.02200
H1579       H  0.62325256  0.84263200  0.73972910     0.05200
C1580       C  0.62990309  0.87761269  0.76587718     0.20600
H1581       H  0.62958712  0.91241468  0.69768956     0.10300
C1582       C  0.64891243  0.86939889  0.77611977    -0.15600
C1583       C  0.65055358  0.86857841  0.79915612     0.03300
C1584       C  0.63279230  0.87601274  0.81232658    -0.10900
C1585       C  0.61375324  0.88414752  0.80186421    -0.01000
C1586       C  0.61221213  0.88498378  0.77890234    -0.06100
H1587       H  0.66247259  0.86345708  0.76611398     0.06300
H1588       H  0.59993085  0.88995396  0.81158387     0.09700
Br1589     Br  0.63716498  0.92493776  0.74356101    -0.05800
Br1590     Br  0.61746423  0.82876428  0.69450172    -0.02800
Br1591     Br  0.67691412  0.85595187  0.81131249     0.00100
Br1592     Br  0.58537865  0.89574471  0.76602675    -0.04300
C1593       C  0.80625021  0.87318969  0.63376333    -0.11700
C1594       C  0.79379345  0.87060043  0.65338018     0.03800
C1595       C  0.77077794  0.87219083  0.65266107    -0.12200
C1596       C  0.75968520  0.87584818  0.63271424     0.18600
C1597       C  0.77196555  0.87831024  0.61319017    -0.09300
C1598       C  0.79493526  0.87705929  0.61386072    -0.02200
H1599       H  0.76140554  0.87032184  0.66776485     0.05200
C1600       C  0.73532190  0.87694546  0.63253428     0.20600
H1601       H  0.80395749  0.87906687  0.59857444     0.10300
C1602       C  0.72494223  0.89657169  0.62610057    -0.15600
C1603       C  0.70196272  0.89799522  0.62483171     0.03300
C1604       C  0.68884868  0.87954678  0.63058686    -0.10900
C1605       C  0.69937798  0.86000836  0.63732008    -0.01000
C1606       C  0.72233851  0.85857582  0.63828948    -0.06100
H1607       H  0.73484441  0.91077875  0.62164735     0.06300
H1608       H  0.68972257  0.84565174  0.64181607     0.09700
Br1609     Br  0.75817903  0.88250395  0.58498151    -0.05800
Br1610     Br  0.80655704  0.86403817  0.68162802    -0.02800
Br1611     Br  0.69001965  0.92519274  0.61380674     0.00100
Br1612     Br  0.73510210  0.83083721  0.64665508    -0.04300
C1613       C  0.62434208  0.88294369  0.56242841    -0.11700
C1614       C  0.63798926  0.86886153  0.54988562     0.03800
C1615       C  0.63776494  0.87017473  0.52685894    -0.12200
C1616       C  0.62407815  0.88529936  0.51603565     0.18600
C1617       C  0.61046336  0.89936340  0.52847890    -0.09300
C1618       C  0.61084822  0.89827750  0.55152509    -0.02200
H1619       H  0.64831689  0.85935167  0.51732135     0.05200
C1620       C  0.62376753  0.88558580  0.49171850     0.20600
H1621       H  0.60017461  0.90908200  0.56094775     0.10300
C1622       C  0.61088997  0.86999322  0.48054213    -0.15600
C1623       C  0.61064866  0.86922126  0.45749972     0.03300
C1624       C  0.62369035  0.88415268  0.44525546    -0.10900
C1625       C  0.63622419  0.90008872  0.45652568    -0.01000
C1626       C  0.63641842  0.90081176  0.47961098    -0.06100
H1627       H  0.60089782  0.85843399  0.48982151     0.06300
H1628       H  0.64625645  0.91170603  0.44736697     0.09700
Br1629     Br  0.59063401  0.91971529  0.51461514    -0.05800
Br1630     Br  0.65808209  0.84836681  0.56324666    -0.02800
Br1631     Br  0.59111143  0.84835578  0.44378042     0.00100
Br1632     Br  0.65450686  0.92245676  0.49399681    -0.04300
C1633       C  0.30652057  0.86898645  0.62153901    -0.11700
C1634       C  0.29431344  0.84941697  0.61750844     0.03800
C1635       C  0.27122429  0.84989977  0.61826464    -0.12200
C1636       C  0.25992890  0.86953327  0.62279202     0.18600
C1637       C  0.27189339  0.88906365  0.62623449    -0.09300
C1638       C  0.29490026  0.88868526  0.62562814    -0.02200
H1639       H  0.26199280  0.83485453  0.61536628     0.05200
C1640       C  0.23564870  0.86937104  0.62428316     0.20600
H1641       H  0.30370541  0.90396429  0.62856657     0.10300
C1642       C  0.22565366  0.87005525  0.64509020    -0.15600
C1643       C  0.20267955  0.87070237  0.64724901     0.03300
C1644       C  0.18918218  0.87038467  0.62814287    -0.10900
C1645       C  0.19949455  0.86961889  0.60730128    -0.01000
C1646       C  0.22243851  0.86923334  0.60528706    -0.06100
H1647       H  0.23586005  0.87035741  0.65976263     0.06300
H1648       H  0.18972184  0.86961446  0.59234831     0.09700
Br1649     Br  0.25740905  0.91671882  0.63146189    -0.05800
Br1650     Br  0.30761582  0.82157198  0.61030047    -0.02800
Br1651     Br  0.19144681  0.87243989  0.67683083     0.00100
Br1652     Br  0.23507207  0.86948498  0.57626967    -0.04300
C1653       C  0.37230353  0.87229091  0.68900125    -0.11700
C1654       C  0.38059839  0.85454447  0.70176517     0.03800
C1655       C  0.38009742  0.85571371  0.72479511    -0.12200
C1656       C  0.37127887  0.87411630  0.73553783     0.18600
C1657       C  0.36276213  0.89165373  0.72305154    -0.09300
C1658       C  0.36342778  0.89071749  0.70000150    -0.02200
H1659       H  0.38675437  0.84221900  0.73443227     0.05200
C1660       C  0.37171165  0.87494656  0.75982548     0.20600
H1661       H  0.35677099  0.90440643  0.69066092     0.10300
C1662       C  0.38998712  0.88429413  0.77040743    -0.15600
C1663       C  0.39117749  0.88516902  0.79343630     0.03300
C1664       C  0.37371847  0.87650601  0.80629904    -0.10900
C1665       C  0.35536961  0.86723676  0.79548629    -0.01000
C1666       C  0.35434099  0.86630184  0.77246813    -0.06100
H1667       H  0.40337139  0.89101903  0.76065354     0.06300
H1668       H  0.34186110  0.86037407  0.80495949     0.09700
Br1669     Br  0.34999151  0.91707400  0.73690759    -0.05800
Br1670     Br  0.39363342  0.82850116  0.68932361    -0.02800
Br1671     Br  0.41665109  0.89932683  0.80591197     0.00100
Br1672     Br  0.32904356  0.85294960  0.75891461    -0.04300
C1673       C  0.55624548  0.88024615  0.62427936    -0.11700
C1674       C  0.54476919  0.86360288  0.61258418     0.03800
C1675       C  0.52177749  0.86427000  0.61128896    -0.12200
C1676       C  0.50983471  0.88137622  0.62119590     0.18600
C1677       C  0.52118831  0.89829942  0.63234322    -0.09300
C1678       C  0.54420722  0.89769975  0.63368859    -0.02200
H1679       H  0.51309622  0.85125233  0.60261143     0.05200
C1680       C  0.48554090  0.88003155  0.62135728     0.20600
H1681       H  0.55268077  0.91067157  0.64262158     0.10300
C1682       C  0.47557715  0.86351716  0.63406645    -0.15600
C1683       C  0.45267710  0.86126161  0.63472462     0.03300
C1684       C  0.43925519  0.87589505  0.62262150    -0.10900
C1685       C  0.44929620  0.89245832  0.60985262    -0.01000
C1686       C  0.47227647  0.89440097  0.60888221    -0.06100
H1687       H  0.48573130  0.85235901  0.64363856     0.06300
H1688       H  0.43924011  0.90360953  0.60017575     0.09700
Br1689     Br  0.50594074  0.92185132  0.64701085    -0.05800
Br1690     Br  0.55926264  0.84004510  0.59709387    -0.02800
Br1691     Br  0.44093196  0.83857491  0.65333209     0.00100
Br1692     Br  0.48480137  0.91612046  0.58956502    -0.04300
C1693       C  0.37555023  0.87249331  0.30593244    -0.11700
C1694       C  0.36800645  0.85424988  0.29338571     0.03800
C1695       C  0.36796719  0.85538004  0.27034728    -0.12200
C1696       C  0.37522616  0.87437245  0.25942927     0.18600
C1697       C  0.38248945  0.89262683  0.27176079    -0.09300
C1698       C  0.38264990  0.89157708  0.29478820    -0.02200
H1699       H  0.36202708  0.84142733  0.26085362     0.05200
C1700       C  0.37433607  0.87509606  0.23515238     0.20600
H1701       H  0.38836398  0.90580106  0.30400005     0.10300
C1702       C  0.35398673  0.87832108  0.22477581    -0.15600
C1703       C  0.35240856  0.87930616  0.20177662     0.03300
C1704       C  0.37166959  0.87712887  0.18868871    -0.10900
C1705       C  0.39201273  0.87362952  0.19935043    -0.01000
C1706       C  0.39341355  0.87244869  0.22231610    -0.06100
H1707       H  0.33923397  0.88019493  0.23468836     0.06300
H1708       H  0.40696576  0.87151932  0.18981219     0.09700
Br1709     Br  0.39171404  0.91950742  0.25781194    -0.05800
Br1710     Br  0.35622374  0.82778895  0.30627891    -0.02800
Br1711     Br  0.32340806  0.88400180  0.18990810     0.00100
Br1712     Br  0.42158533  0.86658236  0.23547027    -0.04300
C1713       C  0.44188327  0.87525132  0.37371041    -0.11700
C1714       C  0.45538444  0.86036344  0.36194499     0.03800
C1715       C  0.47833196  0.86197245  0.36364028    -0.12200
C1716       C  0.48811877  0.87820965  0.37691141     0.18600
C1717       C  0.47471556  0.89313856  0.38852265    -0.09300
C1718       C  0.45179281  0.89164308  0.38678345    -0.02200
H1719       H  0.48862629  0.85063900  0.35441607     0.05200
C1720       C  0.51236094  0.87956194  0.37808555     0.20600
H1721       H  0.44165496  0.90311401  0.39600813     0.10300
C1722       C  0.52330273  0.89648522  0.36676373    -0.15600
C1723       C  0.54632979  0.89785741  0.36692056     0.03300
C1724       C  0.55876582  0.88198730  0.37859087    -0.10900
C1725       C  0.54766247  0.86512163  0.38999226    -0.01000
C1726       C  0.52466363  0.86387471  0.38988021    -0.06100
H1727       H  0.51386067  0.90847991  0.35748433     0.06300
H1728       H  0.55691022  0.85289279  0.39915598     0.09700
Br1729     Br  0.48702232  0.91533832  0.40746260    -0.05800
Br1730     Br  0.44360283  0.83849957  0.34223750    -0.02800
Br1731     Br  0.55963768  0.92080281  0.34960349     0.00100
Br1732     Br  0.51070354  0.84076466  0.40639792    -0.04300
C1733       C  0.37402296  0.87112733  0.55612026    -0.11700
C1734       C  0.36302874  0.85465107  0.54381665     0.03800
C1735       C  0.36418266  0.85482276  0.52078217    -0.12200
C1736       C  0.37624637  0.87111157  0.50967059     0.18600
C1737       C  0.38727178  0.88751080  0.52188776    -0.09300
C1738       C  0.38598136  0.88750515  0.54492116    -0.02200
H1739       H  0.35536605  0.84236774  0.51144649     0.05200
C1740       C  0.37624666  0.87132080  0.48531301     0.20600
H1741       H  0.39468134  0.90013064  0.55413464     0.10300
C1742       C  0.36460933  0.88794296  0.47428206    -0.15600
C1743       C  0.36386915  0.88859221  0.45124303     0.03300
C1744       C  0.37498803  0.87230459  0.43879771    -0.10900
C1745       C  0.38636949  0.85547357  0.44995776    -0.01000
C1746       C  0.38711037  0.85491771  0.47300951    -0.06100
H1747       H  0.35586227  0.90036898  0.48369897     0.06300
H1748       H  0.39504900  0.84287308  0.44071845     0.09700
Br1749     Br  0.40484809  0.90976394  0.50782011    -0.05800
Br1750     Br  0.34498254  0.83239203  0.55732378    -0.02800
Br1751     Br  0.34624369  0.91134219  0.43803354     0.00100
Br1752     Br  0.40374272  0.83191263  0.48696568    -0.04300
C1753       C  0.87256650  0.37187112  0.69189764    -0.11700
C1754       C  0.85363789  0.37724317  0.70452236     0.03800
C1755       C  0.85448531  0.37610701  0.72757659    -0.12200
C1756       C  0.87384658  0.36977220  0.73842326     0.18600
C1757       C  0.89261343  0.36431371  0.72601403    -0.09300
C1758       C  0.89190638  0.36547178  0.70301263    -0.02200
H1759       H  0.84002930  0.38044858  0.73714409     0.05200
C1760       C  0.87432517  0.36943219  0.76274153     0.20600
H1761       H  0.90655031  0.36104939  0.69379028     0.10300
C1762       C  0.86578651  0.35117051  0.77401488    -0.15600
C1763       C  0.86592936  0.35040512  0.79710489     0.03300
C1764       C  0.87476782  0.36830327  0.80929628    -0.10900
C1765       C  0.88319255  0.38660202  0.79777923    -0.01000
C1766       C  0.88302811  0.38725647  0.77474891    -0.06100
H1767       H  0.85887672  0.33749662  0.76477752     0.06300
H1768       H  0.89002610  0.40050762  0.80671100     0.09700
Br1769     Br  0.91945728  0.35492383  0.73985135    -0.05800
Br1770     Br  0.82637153  0.38715052  0.69179682    -0.02800
Br1771     Br  0.85267218  0.32499032  0.81063027     0.00100
Br1772     Br  0.89455815  0.41295887  0.76031723    -0.04300
C1773       C  0.88190263  0.18773195  0.63295066    -0.11700
C1774       C  0.88732657  0.20074922  0.61432407     0.03800
C1775       C  0.88656662  0.22373962  0.61578438    -0.12200
C1776       C  0.88073117  0.23423651  0.63549756     0.18600
C1777       C  0.87598404  0.22149979  0.65424846    -0.09300
C1778       C  0.87660013  0.19845849  0.65288725    -0.02200
H1779       H  0.89047038  0.23356488  0.60137104     0.05200
C1780       C  0.87907650  0.25850274  0.63567928     0.20600
H1781       H  0.87262107  0.18892123  0.66745930     0.10300
C1782       C  0.85825305  0.26833893  0.63426198    -0.15600
C1783       C  0.85604949  0.29120606  0.63187335     0.03300
C1784       C  0.87514086  0.30469320  0.63058922    -0.10900
C1785       C  0.89597413  0.29460240  0.63271939    -0.01000
C1786       C  0.89801703  0.27180229  0.63529313    -0.06100
H1787       H  0.84361507  0.25807121  0.63460023     0.06300
H1788       H  0.91089315  0.30443129  0.63230942     0.09700
Br1789     Br  0.86891946  0.23492543  0.68202555    -0.05800
Br1790     Br  0.89671772  0.18869847  0.58654107    -0.02800
Br1791     Br  0.82642369  0.30231655  0.63044513     0.00100
Br1792     Br  0.92698365  0.25947108  0.63839931    -0.04300
C1793       C  0.86710208  0.37246009  0.19180218    -0.11700
C1794       C  0.87629241  0.38980051  0.20447082     0.03800
C1795       C  0.87649895  0.38830294  0.22744483    -0.12200
C1796       C  0.86778086  0.36980595  0.23814547     0.18600
C1797       C  0.85871729  0.35248322  0.22567767    -0.09300
C1798       C  0.85853811  0.35384399  0.20267591    -0.02200
H1799       H  0.88357047  0.40162622  0.23706960     0.05200
C1800       C  0.86798579  0.36918772  0.26239075     0.20600
H1801       H  0.85148453  0.34036102  0.19327580     0.10300
C1802       C  0.84840199  0.37327846  0.27385432    -0.15600
C1803       C  0.84810930  0.37404237  0.29688829     0.03300
C1804       C  0.86790331  0.37066533  0.30887271    -0.10900
C1805       C  0.88746497  0.36636983  0.29713031    -0.01000
C1806       C  0.88761153  0.36561366  0.27412126    -0.06100
H1807       H  0.83330135  0.37622538  0.26476335     0.06300
H1808       H  0.90279475  0.36352427  0.30584019     0.09700
Br1809     Br  0.84676886  0.32658864  0.23940553    -0.05800
Br1810     Br  0.88993550  0.41544067  0.19174425    -0.02800
Br1811     Br  0.82017235  0.38064581  0.31030926     0.00100
Br1812     Br  0.91489637  0.35935037  0.25936614    -0.04300
C1813       C  0.87428077  0.37466513  0.44155104    -0.11700
C1814       C  0.89089689  0.38599308  0.45338890     0.03800
C1815       C  0.89121426  0.38510597  0.47648393    -0.12200
C1816       C  0.87528438  0.37300081  0.48808616     0.18600
C1817       C  0.85874489  0.36173022  0.47634329    -0.09300
C1818       C  0.85826178  0.36273320  0.45331676    -0.02200
H1819       H  0.90383277  0.39404258  0.48546657     0.05200
C1820       C  0.87572787  0.37272385  0.51246190     0.20600
H1821       H  0.84551366  0.35376808  0.44454706     0.10300
C1822       C  0.86009180  0.38511013  0.52411873    -0.15600
C1823       C  0.85949291  0.38474460  0.54717683     0.03300
C1824       C  0.87470246  0.37163702  0.55899336    -0.10900
C1825       C  0.89072721  0.35969334  0.54726718    -0.01000
C1826       C  0.89127261  0.36010055  0.52416981    -0.06100
H1827       H  0.84833025  0.39516896  0.51519531     0.06300
H1828       H  0.90261372  0.34969196  0.55607869     0.09700
Br1829     Br  0.83693469  0.34415080  0.49108140    -0.05800
Br1830     Br  0.91280370  0.40394634  0.43919340    -0.02800
Br1831     Br  0.83850814  0.40367201  0.56150695     0.00100
Br1832     Br  0.91298877  0.34261953  0.50922534    -0.04300
C1833       C  0.87489783  0.68739668  0.62496149    -0.11700
C1834       C  0.89416540  0.70031892  0.62186145     0.03800
C1835       C  0.89301758  0.72331376  0.62362868    -0.12200
C1836       C  0.87308061  0.73388648  0.62846043     0.18600
C1837       C  0.85393455  0.72120020  0.63157810    -0.09300
C1838       C  0.85494124  0.69823415  0.62980648    -0.02200
H1839       H  0.90777401  0.73308994  0.62099992     0.05200
C1840       C  0.87242240  0.75821743  0.62940752     0.20600
H1841       H  0.83997221  0.68882279  0.63243974     0.10300
C1842       C  0.86208108  0.76981588  0.61234255    -0.15600
C1843       C  0.86133151  0.79286048  0.61243355     0.03300
C1844       C  0.87130689  0.80476577  0.62988584    -0.10900
C1845       C  0.88137907  0.79301346  0.64712289    -0.01000
C1846       C  0.88207996  0.76995799  0.64696771    -0.06100
H1847       H  0.85442827  0.76080069  0.59884734     0.06300
H1848       H  0.88907644  0.80185016  0.66074698     0.09700
Br1849     Br  0.82618071  0.73453595  0.63886488    -0.05800
Br1850     Br  0.92250779  0.68822073  0.61449249    -0.02800
Br1851     Br  0.84534193  0.80680576  0.58891737     0.00100
Br1852     Br  0.89597049  0.75512944  0.67120564    -0.04300
C1853       C  0.87564123  0.61867802  0.68838728    -0.11700
C1854       C  0.89548537  0.61967972  0.70079379     0.03800
C1855       C  0.89467811  0.61945851  0.72385686    -0.12200
C1856       C  0.87454721  0.61827017  0.73502984     0.18600
C1857       C  0.85483789  0.61713605  0.72294322    -0.09300
C1858       C  0.85547677  0.61730644  0.69987547    -0.02200
H1859       H  0.90988540  0.62044737  0.73319968     0.05200
C1860       C  0.87449646  0.61905361  0.75934341     0.20600
H1861       H  0.84003795  0.61647266  0.69093227     0.10300
C1862       C  0.87372777  0.63956827  0.76989758    -0.15600
C1863       C  0.87428110  0.64114820  0.79292159     0.03300
C1864       C  0.87576129  0.62171866  0.80590264    -0.10900
C1865       C  0.87642325  0.60115402  0.79503199    -0.01000
C1866       C  0.87580364  0.59973831  0.77201887    -0.06100
H1867       H  0.87274029  0.65448286  0.76009818     0.06300
H1868       H  0.87751397  0.58599705  0.80441738     0.09700
Br1869     Br  0.82672633  0.61556925  0.73736545    -0.05800
Br1870     Br  0.92438727  0.62196473  0.68796572    -0.02800
Br1871     Br  0.87284452  0.67048676  0.80491036     0.00100
Br1872     Br  0.87684596  0.57112482  0.75850959    -0.04300
C1873       C  0.87345779  0.55460536  0.61939289    -0.11700
C1874       C  0.88840240  0.54227890  0.60646060     0.03800
C1875       C  0.88746843  0.51921624  0.60672215    -0.12200
C1876       C  0.87192185  0.50814790  0.61977235     0.18600
C1877       C  0.85721296  0.52039337  0.63288303    -0.09300
C1878       C  0.85785270  0.54342841  0.63236110    -0.02200
H1879       H  0.89893291  0.50984165  0.59671625     0.05200
C1880       C  0.87209123  0.48382418  0.62039834     0.20600
H1881       H  0.84650765  0.55264911  0.64264084     0.10300
C1882       C  0.88946190  0.47317063  0.63120789    -0.15600
C1883       C  0.89006471  0.45018894  0.63278191     0.03300
C1884       C  0.87302208  0.43740967  0.62324168    -0.10900
C1885       C  0.85563455  0.44818724  0.61235398    -0.01000
C1886       C  0.85516459  0.47120488  0.61072268    -0.06100
H1887       H  0.90245029  0.48284929  0.63879305     0.06300
H1888       H  0.84255006  0.43867138  0.60474305     0.09700
Br1889     Br  0.83688651  0.50637056  0.65269496    -0.05800
Br1890     Br  0.90974033  0.55587376  0.58739533    -0.02800
Br1891     Br  0.91390929  0.43760632  0.64940962     0.00100
Br1892     Br  0.83151458  0.48467767  0.59459631    -0.04300
C1893       C  0.86800769  0.62431084  0.30543277    -0.11700
C1894       C  0.84985074  0.63250729  0.29327168     0.03800
C1895       C  0.85079835  0.63304284  0.27020218    -0.12200
C1896       C  0.86950499  0.62549754  0.25895416     0.18600
C1897       C  0.88744551  0.61710540  0.27094301    -0.09300
C1898       C  0.88663305  0.61663745  0.29394219    -0.02200
H1899       H  0.83697281  0.63957893  0.26096975     0.05200
C1900       C  0.87023955  0.62659071  0.23469017     0.20600
H1901       H  0.90063355  0.61006237  0.30287114     0.10300
C1902       C  0.88332226  0.64273070  0.22450999    -0.15600
C1903       C  0.88554901  0.64333192  0.20154985     0.03300
C1904       C  0.87461325  0.62745631  0.18848818    -0.10900
C1905       C  0.86132538  0.61149355  0.19876808    -0.01000
C1906       C  0.85894727  0.61107088  0.22166830    -0.06100
H1907       H  0.89217075  0.65462126  0.23452537     0.06300
H1908       H  0.85269865  0.59929734  0.18892824     0.09700
Br1909     Br  0.91319226  0.60565533  0.25652113    -0.05800
Br1910     Br  0.82381015  0.64435013  0.30686584    -0.02800
Br1911     Br  0.90498648  0.66507373  0.18920128     0.00100
Br1912     Br  0.84070890  0.58860508  0.23449502    -0.04300
C1913       C  0.86833977  0.43938236  0.37124250    -0.11700
C1914       C  0.85073276  0.45055662  0.36079806     0.03800
C1915       C  0.85082809  0.47364175  0.35970957    -0.12200
C1916       C  0.86835961  0.48582410  0.36857347     0.18600
C1917       C  0.88610317  0.47475362  0.37851689    -0.09300
C1918       C  0.88601439  0.45175038  0.37975451    -0.02200
H1919       H  0.83724232  0.48213929  0.35181811     0.05200
C1920       C  0.86762699  0.51012119  0.36813750     0.20600
H1921       H  0.89973029  0.44351344  0.38769251     0.10300
C1922       C  0.85633673  0.52123012  0.38496574    -0.15600
C1923       C  0.85656163  0.54426703  0.38607779     0.03300
C1924       C  0.86823498  0.55648958  0.37011918    -0.10900
C1925       C  0.87946951  0.54534102  0.35321974    -0.01000
C1926       C  0.87908635  0.52228798  0.35204002    -0.06100
H1927       H  0.84776295  0.51190342  0.39757195     0.06300
H1928       H  0.88838108  0.55460236  0.34079916     0.09700
Br1929     Br  0.91060728  0.49048394  0.39095882    -0.05800
Br1930     Br  0.82686219  0.43540492  0.34648075    -0.02800
Br1931     Br  0.84218452  0.55811294  0.41066939     0.00100
Br1932     Br  0.89439429  0.50804056  0.32829272    -0.04300
C1933       C  0.87338032  0.62310524  0.55536333    -0.11700
C1934       C  0.88932126  0.63491264  0.54309064     0.03800
C1935       C  0.88873484  0.63444777  0.52001908    -0.12200
C1936       C  0.87249035  0.62240913  0.50883959     0.18600
C1937       C  0.85657458  0.61066825  0.52095626    -0.09300
C1938       C  0.85700605  0.61120733  0.54402913    -0.02200
H1939       H  0.90089747  0.64367886  0.51072560     0.05200
C1940       C  0.87229370  0.62243870  0.48450505     0.20600
H1941       H  0.84474777  0.60192792  0.55314212     0.10300
C1942       C  0.88586561  0.60766289  0.47301865    -0.15600
C1943       C  0.88585518  0.60712627  0.44992914     0.03300
C1944       C  0.87198221  0.62153269  0.43804369    -0.10900
C1945       C  0.85841087  0.63629075  0.44963559    -0.01000
C1946       C  0.85865388  0.63697884  0.47268258    -0.06100
H1947       H  0.89633024  0.59636973  0.48207285     0.06300
H1948       H  0.84783225  0.64758847  0.44071445     0.09700
Br1949     Br  0.83427512  0.59338264  0.50658156    -0.05800
Br1950     Br  0.91151240  0.65300203  0.55669793    -0.02800
Br1951     Br  0.90402365  0.58549643  0.43561281     0.00100
Br1952     Br  0.84042951  0.65825812  0.48738330    -0.04300
C1953       C  0.37780679  0.12116833  0.69045012    -0.11700
C1954       C  0.38274810  0.10220186  0.70318123     0.03800
C1955       C  0.38097479  0.10301414  0.72617979    -0.12200
C1956       C  0.37441205  0.12237033  0.73691005     0.18600
C1957       C  0.36959683  0.14127644  0.72443451    -0.09300
C1958       C  0.37127458  0.14057432  0.70143703    -0.02200
H1959       H  0.38502917  0.08852365  0.73581735     0.05200
C1960       C  0.37388577  0.12283293  0.76122417     0.20600
H1961       H  0.36735146  0.15530529  0.69212686     0.10300
C1962       C  0.39335467  0.12747590  0.77267268    -0.15600
C1963       C  0.39374697  0.12805470  0.79572654     0.03300
C1964       C  0.37417694  0.12381636  0.80785350    -0.10900
C1965       C  0.35466812  0.11908806  0.79611618    -0.01000
C1966       C  0.35443712  0.11853913  0.77303526    -0.06100
H1967       H  0.40836110  0.13079965  0.76354712     0.06300
H1968       H  0.33947793  0.11569400  0.80488126     0.09700
Br1969     Br  0.36099613  0.16844414  0.73822133    -0.05800
Br1970     Br  0.39315377  0.07496395  0.69073317    -0.02800
Br1971     Br  0.42161558  0.13537297  0.80895977     0.00100
Br1972     Br  0.32730093  0.11176812  0.75822894    -0.04300
C1973       C  0.31396252  0.12339348  0.62317932    -0.11700
C1974       C  0.30181562  0.14014289  0.63393234     0.03800
C1975       C  0.27880464  0.13942412  0.63375613    -0.12200
C1976       C  0.26755987  0.12233290  0.62300091     0.18600
C1977       C  0.27956536  0.10583073  0.61197061    -0.09300
C1978       C  0.30258292  0.10636057  0.61229230    -0.02200
H1979       H  0.26957875  0.15223312  0.64214838     0.05200
C1980       C  0.24328226  0.12234574  0.62315010     0.20600
H1981       H  0.31162568  0.09345944  0.60384876     0.10300
C1982       C  0.23199938  0.12699085  0.60358543    -0.15600
C1983       C  0.20899675  0.12785054  0.60311024     0.03300
C1984       C  0.19680781  0.12401899  0.62270589    -0.10900
C1985       C  0.20833529  0.11949569  0.64233134    -0.01000
C1986       C  0.23134036  0.11862605  0.64266445    -0.06100
H1987       H  0.24121502  0.13016977  0.58860135     0.06300
H1988       H  0.19945195  0.11634606  0.65750843     0.09700
Br1989     Br  0.26528205  0.08205580  0.59664932    -0.05800
Br1990     Br  0.31535268  0.16377689  0.65018627    -0.02800
Br1991     Br  0.19590771  0.13507846  0.57515692     0.00100
Br1992     Br  0.24571918  0.11169590  0.67000043    -0.04300
C1993       C  0.37905860  0.13148258  0.30802756    -0.11700
C1994       C  0.39384797  0.11933259  0.29484126     0.03800
C1995       C  0.39213190  0.12021863  0.27186067    -0.12200
C1996       C  0.37579907  0.13303774  0.26170031     0.18600
C1997       C  0.36110588  0.14530579  0.27484116    -0.09300
C1998       C  0.36295416  0.14462135  0.29784439    -0.02200
H1999       H  0.40357563  0.11084343  0.26183486     0.05200
C2000       C  0.37425508  0.13304923  0.23738044     0.20600
H2001       H  0.35149629  0.15403099  0.30782565     0.10300
C2002       C  0.35703092  0.12150817  0.22713140    -0.15600
C2003       C  0.35573448  0.12012869  0.20412006     0.03300
C2004       C  0.37196780  0.13044765  0.19094765    -0.10900
C2005       C  0.38918979  0.14201742  0.20132639    -0.01000
C2006       C  0.39036552  0.14345081  0.22432411    -0.06100
H2007       H  0.34476668  0.11318586  0.23712133     0.06300
H2008       H  0.40167464  0.15020870  0.19150447     0.09700
Br2009     Br  0.33847803  0.16333302  0.26207329    -0.05800
Br2010     Br  0.41740801  0.10227406  0.30731580    -0.02800
Br2011     Br  0.33233742  0.10259071  0.19189085     0.00100
Br2012     Br  0.41394737  0.16019141  0.23723112    -0.04300
C2013       C  0.38046854  0.12549049  0.44037388    -0.11700
C2014       C  0.36781612  0.10986049  0.45213404     0.03800
C2015       C  0.36815906  0.10990008  0.47519930    -0.12200
C2016       C  0.38091081  0.12530250  0.48682819     0.18600
C2017       C  0.39376489  0.14069353  0.47514416    -0.09300
C2018       C  0.39326758  0.14085049  0.45210606    -0.02200
H2019       H  0.35824115  0.09801546  0.48414133     0.05200
C2020       C  0.38085892  0.12474833  0.51114380     0.20600
H2021       H  0.40324472  0.15278990  0.44330323     0.10300
C2022       C  0.39135527  0.10725521  0.52194018    -0.15600
C2023       C  0.39171872  0.10610283  0.54496664     0.03300
C2024       C  0.38139595  0.12277734  0.55759770    -0.10900
C2025       C  0.37084599  0.14026181  0.54665428    -0.01000
C2026       C  0.37030767  0.14121869  0.52363013    -0.06100
H2027       H  0.39949053  0.09453440  0.51236682     0.06300
H2028       H  0.36257533  0.15302844  0.55604083     0.09700
Br2029     Br  0.41285477  0.16121428  0.48991535    -0.05800
Br2030     Br  0.34869674  0.08902149  0.43780828    -0.02800
Br2031     Br  0.40758885  0.08196715  0.55789513     0.00100
Br2032     Br  0.35424479  0.16480181  0.50995874    -0.04300
C2033       C  0.69674913  0.12511705  0.62581385    -0.11700
C2034       C  0.70959786  0.14470572  0.62553618     0.03800
C2035       C  0.73260223  0.14336293  0.62649243    -0.12200
C2036       C  0.74325189  0.12294029  0.62783598     0.18600
C2037       C  0.73067644  0.10349037  0.62829494    -0.09300
C2038       C  0.70769904  0.10467102  0.62721898    -0.02200
H2039       H  0.74231151  0.15838333  0.62621400     0.05200
C2040       C  0.76753823  0.12231765  0.62870666     0.20600
H2041       H  0.69839738  0.08941094  0.62753584     0.10300
C2042       C  0.77805331  0.11791110  0.64878156    -0.15600
C2043       C  0.80108397  0.11749887  0.65027377     0.03300
C2044       C  0.81404857  0.12171501  0.63127199    -0.10900
C2045       C  0.80323769  0.12600696  0.61116163    -0.01000
C2046       C  0.78026053  0.12633465  0.60978799    -0.06100
H2047       H  0.76823696  0.11472667  0.66337509     0.06300
H2048       H  0.81266009  0.12920268  0.59632463     0.09700
Br2049     Br  0.74423054  0.07494462  0.62993485    -0.05800
Br2050     Br  0.69745984  0.17394899  0.62389448    -0.02800
Br2051     Br  0.81323383  0.11036318  0.67865161     0.00100
Br2052     Br  0.76691811  0.13184922  0.58161988    -0.04300
C2053       C  0.63123250  0.12566320  0.69080967    -0.11700
C2054       C  0.64401829  0.14114346  0.70266093     0.03800
C2055       C  0.64401294  0.14079691  0.72575952    -0.12200
C2056       C  0.63157782  0.12509713  0.73732731     0.18600
C2057       C  0.61924048  0.10934640  0.72552814    -0.09300
C2058       C  0.61921088  0.10966541  0.70246862    -0.02200
H2059       H  0.65374791  0.15280773  0.73475457     0.05200
C2060       C  0.63100979  0.12577592  0.76168541     0.20600
H2061       H  0.60953560  0.09750638  0.69360757     0.10300
C2062       C  0.61199641  0.13360869  0.77217222    -0.15600
C2063       C  0.61042764  0.13402137  0.79517678     0.03300
C2064       C  0.62818477  0.12628961  0.80820540    -0.10900
C2065       C  0.64745036  0.11893240  0.79756442    -0.01000
C2066       C  0.64894564  0.11861685  0.77451378    -0.06100
H2067       H  0.59828249  0.13948459  0.76234326     0.06300
H2068       H  0.66128301  0.11300867  0.80718325     0.09700
Br2069     Br  0.60251029  0.08687866  0.74026733    -0.05800
Br2070     Br  0.66294000  0.16208533  0.68826650    -0.02800
Br2071     Br  0.58398887  0.14646877  0.80743091     0.00100
Br2072     Br  0.67543459  0.10756693  0.76122132    -0.04300
C2073       C  0.56400002  0.12411820  0.62338077    -0.11700
C2074       C  0.55171509  0.13807160  0.60940755     0.03800
C2075       C  0.52867100  0.13707854  0.60964476    -0.12200
C2076       C  0.51755197  0.12254653  0.62382434     0.18600
C2077       C  0.52984411  0.10841709  0.63755290    -0.09300
C2078       C  0.55286139  0.10918841  0.63711191    -0.02200
H2079       H  0.51934865  0.14766925  0.59868713     0.05200
C2080       C  0.49317079  0.12222865  0.62394968     0.20600
H2081       H  0.56211342  0.09838091  0.64791685     0.10300
C2082       C  0.48203662  0.10306431  0.61731447    -0.15600
C2083       C  0.45899889  0.10199081  0.61754838     0.03300
C2084       C  0.44659429  0.12063055  0.62421735    -0.10900
C2085       C  0.45790348  0.13989235  0.63057363    -0.01000
C2086       C  0.48091497  0.14077909  0.63058165    -0.06100
H2087       H  0.49138274  0.08881077  0.61192995     0.06300
H2088       H  0.44882654  0.15434349  0.63586987     0.09700
Br2089     Br  0.51603161  0.08847959  0.65790633    -0.05800
Br2090     Br  0.56543567  0.15777677  0.58875145    -0.02800
Br2091     Br  0.44599771  0.07473050  0.60787399     0.00100
Br2092     Br  0.49478620  0.16743825  0.64064499    -0.04300
C2093       C  0.63148848  0.12464012  0.30821700    -0.11700
C2094       C  0.63863952  0.10691946  0.29479541     0.03800
C2095       C  0.63802493  0.10894726  0.27183059    -0.12200
C2096       C  0.63058364  0.12838676  0.26187371     0.18600
C2097       C  0.62391217  0.14621450  0.27507037    -0.09300
C2098       C  0.62446275  0.14428336  0.29803087    -0.02200
H2099       H  0.64331280  0.09524213  0.26163347     0.05200
C2100       C  0.62886728  0.12923853  0.23767584     0.20600
H2101       H  0.61897097  0.15811006  0.30794021     0.10300
C2102       C  0.61003772  0.12049340  0.22758993    -0.15600
C2103       C  0.60806556  0.11996324  0.20463073     0.03300
C2104       C  0.62526325  0.12845841  0.19132093    -0.10900
C2105       C  0.64411847  0.13728505  0.20162958    -0.01000
C2106       C  0.64600661  0.13770778  0.22460510    -0.06100
H2107       H  0.59694032  0.11370466  0.23768496     0.06300
H2108       H  0.65749642  0.14389707  0.19179803     0.09700
Br2109     Br  0.61348516  0.17324721  0.26237250    -0.05800
Br2110     Br  0.65030959  0.07987376  0.30642787    -0.02800
Br2111     Br  0.58210571  0.10604450  0.19290199     0.00100
Br2112     Br  0.67235900  0.14961762  0.23747059    -0.04300
C2113       C  0.56424069  0.12389092  0.37505555    -0.11700
C2114       C  0.55145035  0.10830050  0.38674003     0.03800
C2115       C  0.52841104  0.10960062  0.38620243    -0.12200
C2116       C  0.51773716  0.12622111  0.37417278     0.18600
C2117       C  0.53047212  0.14199607  0.36284082    -0.09300
C2118       C  0.55349902  0.14078421  0.36342111    -0.02200
H2119       H  0.51873745  0.09766813  0.39534559     0.05200
C2120       C  0.49333657  0.12698926  0.37387544     0.20600
H2121       H  0.56305533  0.15288513  0.35438125     0.10300
C2122       C  0.48240188  0.14459330  0.38417269    -0.15600
C2123       C  0.45934417  0.14581783  0.38426899     0.03300
C2124       C  0.44677886  0.12900695  0.37406073    -0.10900
C2125       C  0.45783371  0.11130720  0.36394381    -0.01000
C2126       C  0.48085649  0.11025824  0.36367620    -0.06100
H2127       H  0.49189355  0.15738693  0.39230867     0.06300
H2128       H  0.44852325  0.09831396  0.35591697     0.09700
Br2129     Br  0.51716471  0.16498354  0.34565832    -0.05800
Br2130     Br  0.56437816  0.08580802  0.40490105    -0.02800
Br2131     Br  0.44623029  0.17017763  0.39971410     0.00100
Br2132     Br  0.49448849  0.08607013  0.34845807    -0.04300
C2133       C  0.63001233  0.12366137  0.55819670    -0.11700
C2134       C  0.64303540  0.13809800  0.54540599     0.03800
C2135       C  0.64195373  0.13711965  0.52238382    -0.12200
C2136       C  0.62799979  0.12199234  0.51179181     0.18600
C2137       C  0.61503673  0.10755037  0.52451281    -0.09300
C2138       C  0.61620680  0.10838957  0.54753405    -0.02200
H2139       H  0.65222778  0.14804609  0.51265777     0.05200
C2140       C  0.62771337  0.12117583  0.48745745     0.20600
H2141       H  0.60600534  0.09730747  0.55715809     0.10300
C2142       C  0.63740945  0.10320252  0.47661317    -0.15600
C2143       C  0.63834905  0.10234544  0.45356256     0.03300
C2144       C  0.62947601  0.11983736  0.44096150    -0.10900
C2145       C  0.61967820  0.13774816  0.45197904    -0.01000
C2146       C  0.61869948  0.13849438  0.47498197    -0.06100
H2147       H  0.64461324  0.08994356  0.48617881     0.06300
H2148       H  0.61256688  0.15122257  0.44265363     0.09700
Br2149     Br  0.59500961  0.08696807  0.51115617    -0.05800
Br2150     Br  0.66367760  0.15837131  0.55834948    -0.02800
Br2151     Br  0.65321163  0.07755127  0.44065194     0.00100
Br2152     Br  0.60446929  0.16325537  0.48863404    -0.04300
C2153       C  0.11746510  0.62173432  0.69165638    -0.11700
C2154       C  0.09827937  0.61964601  0.70487397     0.03800
C2155       C  0.10008919  0.62014542  0.72791928    -0.12200
C2156       C  0.12062594  0.62279132  0.73815042     0.18600
C2157       C  0.13964351  0.62499736  0.72518857    -0.09300
C2158       C  0.13799091  0.62439644  0.70224414    -0.02200
H2159       H  0.08539472  0.61846201  0.73795021     0.05200
C2160       C  0.12204934  0.62320919  0.76240538     0.20600
H2161       H  0.15295297  0.62627734  0.69267341     0.10300
C2162       C  0.12751877  0.60384550  0.77370950    -0.15600
C2163       C  0.12977545  0.60378247  0.79668794     0.03300
C2164       C  0.12632891  0.62352108  0.80877989    -0.10900
C2165       C  0.12097125  0.64290226  0.79716785    -0.01000
C2166       C  0.11887441  0.64285947  0.77423628    -0.06100
H2167       H  0.13030025  0.58874696  0.76453427     0.06300
H2168       H  0.11824224  0.65824224  0.80593008     0.09700
Br2169     Br  0.16817618  0.62932700  0.73820065    -0.05800
Br2170     Br  0.06914702  0.61575799  0.69304528    -0.02800
Br2171     Br  0.13843658  0.57632414  0.80992425     0.00100
Br2172     Br  0.11207489  0.67009814  0.75966920    -0.04300
C2173       C  0.11883737  0.68998458  0.62985342    -0.11700
C2174       C  0.13825839  0.70277471  0.62728026     0.03800
C2175       C  0.13726772  0.72575878  0.62920363    -0.12200
C2176       C  0.11735968  0.73649586  0.63381212     0.18600
C2177       C  0.09811580  0.72391117  0.63682442    -0.09300
C2178       C  0.09895238  0.70093267  0.63480334    -0.02200
H2179       H  0.15210815  0.73541337  0.62669830     0.05200
C2180       C  0.11688168  0.76088760  0.63400419     0.20600
H2181       H  0.08390010  0.69160628  0.63721380     0.10300
C2182       C  0.10627442  0.77198521  0.61673158    -0.15600
C2183       C  0.10670690  0.79502272  0.61539964     0.03300
C2184       C  0.11804972  0.80740555  0.63159829    -0.10900
C2185       C  0.12818759  0.79621664  0.64919318    -0.01000
C2186       C  0.12779405  0.77317154  0.65041654    -0.06100
H2187       H  0.09777976  0.76261978  0.60407905     0.06300
H2188       H  0.13684334  0.80540549  0.66186158     0.09700
Br2189     Br  0.07044433  0.73737376  0.64419050    -0.05800
Br2190     Br  0.16664368  0.69055475  0.62032647    -0.02800
Br2191     Br  0.09063767  0.80840211  0.59161694     0.00100
Br2192     Br  0.14220834  0.75920246  0.67486838    -0.04300
C2193       C  0.12418836  0.62309026  0.30843391    -0.11700
C2194       C  0.10463303  0.62558114  0.29581607     0.03800
C2195       C  0.10571705  0.62538139  0.27276290    -0.12200
C2196       C  0.12589604  0.62300619  0.26182958     0.18600
C2197       C  0.14533919  0.62063817  0.27418890    -0.09300
C2198       C  0.14436881  0.62055873  0.29721430    -0.02200
H2199       H  0.09074541  0.62755053  0.26324832     0.05200
C2200       C  0.12645942  0.62438063  0.23753918     0.20600
H2201       H  0.15958923  0.61857814  0.30634448     0.10300
C2202       C  0.13507700  0.64340128  0.22768253    -0.15600
C2203       C  0.13572372  0.64559219  0.20475400     0.03300
C2204       C  0.12720749  0.62858967  0.19119120    -0.10900
C2205       C  0.11879335  0.60940354  0.20120257    -0.01000
C2206       C  0.11837727  0.60721472  0.22417228    -0.06100
H2207       H  0.14153535  0.65655738  0.23794332     0.06300
H2208       H  0.11240762  0.59606242  0.19114711     0.09700
Br2209     Br  0.17357446  0.61732950  0.26028419    -0.05800
Br2210     Br  0.07591136  0.63026914  0.30837877    -0.02800
Br2211     Br  0.14984079  0.67157885  0.19334685     0.00100
Br2212     Br  0.10726362  0.58029937  0.23659025    -0.04300
C2213       C  0.11908084  0.62642566  0.55882315    -0.11700
C2214       C  0.13368354  0.64053695  0.54743215     0.03800
C2215       C  0.13471417  0.63984174  0.52437433    -0.12200
C2216       C  0.12134526  0.62526956  0.51237533     0.18600
C2217       C  0.10671268  0.61122877  0.52370724    -0.09300
C2218       C  0.10552173  0.61203606  0.54674897    -0.02200
H2219       H  0.14583596  0.65085367  0.51573991     0.05200
C2220       C  0.12268703  0.62512608  0.48803486     0.20600
H2221       H  0.09440181  0.60095419  0.55529826     0.10300
C2222       C  0.14056478  0.61478377  0.47764090    -0.15600
C2223       C  0.14199605  0.61388263  0.45457523     0.03300
C2224       C  0.12527380  0.62357734  0.44153076    -0.10900
C2225       C  0.10755131  0.63414051  0.45212266    -0.01000
C2226       C  0.10623834  0.63508301  0.47511048    -0.06100
H2227       H  0.15326845  0.60705771  0.48754125     0.06300
H2228       H  0.09469531  0.64192535  0.44247027     0.09700
Br2229     Br  0.08864258  0.59020089  0.50839542    -0.05800
Br2230     Br  0.15161529  0.66193629  0.56242353    -0.02800
Br2231     Br  0.16639662  0.59799022  0.44213653     0.00100
Br2232     Br  0.08188423  0.65048958  0.48817633    -0.04300
C2233       C  0.12169653  0.30691586  0.62823982    -0.11700
C2234       C  0.10501460  0.29393027  0.61825451     0.03800
C2235       C  0.10651869  0.27090305  0.61862607    -0.12200
C2236       C  0.12431185  0.26035639  0.62884888     0.18600
C2237       C  0.14080398  0.27314095  0.63902822    -0.09300
C2238       C  0.13948994  0.29620855  0.63854784    -0.02200
H2239       H  0.09386820  0.26112365  0.61061029     0.05200
C2240       C  0.12565751  0.23601137  0.62811375     0.20600
H2241       H  0.15234496  0.30580295  0.64644697     0.10300
C2242       C  0.14070916  0.22594106  0.61371484    -0.15600
C2243       C  0.14213858  0.20292471  0.61228050     0.03300
C2244       C  0.12845257  0.18962131  0.62559132    -0.10900
C2245       C  0.11350302  0.19976439  0.64008849    -0.01000
C2246       C  0.11184386  0.22275714  0.64123219    -0.06100
H2247       H  0.15138466  0.23605825  0.60355899     0.06300
H2248       H  0.10283912  0.18974472  0.65035549     0.09700
Br2249     Br  0.16505811  0.25971168  0.65423924    -0.05800
Br2250     Br  0.08043957  0.30629578  0.60254512    -0.02800
Br2251     Br  0.16390295  0.19063476  0.59286147     0.00100
Br2252     Br  0.09066938  0.23535839  0.66107754    -0.04300
C2253       C  0.12119157  0.37893624  0.69148288    -0.11700
C2254       C  0.10252248  0.38459632  0.70435562     0.03800
C2255       C  0.10424033  0.38541628  0.72739136    -0.12200
C2256       C  0.12428221  0.38095883  0.73795700     0.18600
C2257       C  0.14299591  0.37602550  0.72527179    -0.09300
C2258       C  0.14136856  0.37504051  0.70230566    -0.02200
H2259       H  0.08982999  0.38945332  0.73715821     0.05200
C2260       C  0.12517866  0.38056181  0.76227236     0.20600
H2261       H  0.15598606  0.37089464  0.69291562     0.10300
C2262       C  0.12308347  0.36032433  0.77315360    -0.15600
C2263       C  0.12366583  0.35909603  0.79619157     0.03300
C2264       C  0.12636565  0.37860646  0.80887058    -0.10900
C2265       C  0.12865435  0.39886837  0.79768327    -0.01000
C2266       C  0.12809984  0.39993249  0.77463985    -0.06100
H2267       H  0.12087354  0.34535989  0.76359966     0.06300
H2268       H  0.13088454  0.41405382  0.80685382     0.09700
Br2269     Br  0.17109589  0.37051805  0.73871299    -0.05800
Br2270     Br  0.07441805  0.39220957  0.69189374    -0.02800
Br2271     Br  0.12011657  0.33017130  0.80866551     0.00100
Br2272     Br  0.13162569  0.42809937  0.76066550    -0.04300
C2273       C  0.11763554  0.43957955  0.62034604    -0.11700
C2274       C  0.13239696  0.45187314  0.60719266     0.03800
C2275       C  0.13141992  0.47495493  0.60730071    -0.12200
C2276       C  0.11578599  0.48611262  0.62019285     0.18600
C2277       C  0.10049337  0.47387124  0.63263796    -0.09300
C2278       C  0.10149088  0.45080925  0.63261874    -0.02200
H2279       H  0.14293293  0.48428137  0.59730621     0.05200
C2280       C  0.11601418  0.51050856  0.62079361     0.20600
H2281       H  0.08991843  0.44162822  0.64268203     0.10300
C2282       C  0.09951004  0.52237221  0.60979890    -0.15600
C2283       C  0.09940341  0.54548912  0.61003556     0.03300
C2284       C  0.11610619  0.55711343  0.62146822    -0.10900
C2285       C  0.13273977  0.54511613  0.63222395    -0.01000
C2286       C  0.13272434  0.52204102  0.63205683    -0.06100
H2287       H  0.08675610  0.51358471  0.60085985     0.06300
H2288       H  0.14560835  0.55371794  0.64117556     0.09700
Br2289     Br  0.07856848  0.48795828  0.65058598    -0.05800
Br2290     Br  0.15326090  0.43811254  0.58775565    -0.02800
Br2291     Br  0.07683736  0.56009030  0.59330149     0.00100
Br2292     Br  0.15540775  0.50691535  0.64809448    -0.04300
C2293       C  0.11768388  0.38151573  0.19162055    -0.11700
C2294       C  0.12197172  0.40088922  0.20402010     0.03800
C2295       C  0.12129411  0.40015293  0.22707477    -0.12200
C2296       C  0.11705115  0.38035151  0.23823440     0.18600
C2297       C  0.11277191  0.36108449  0.22595812    -0.09300
C2298       C  0.11303183  0.36182623  0.20294849    -0.02200
H2299       H  0.12455046  0.41506317  0.23641040     0.05200
C2300       C  0.11768952  0.37992625  0.26263221     0.20600
H2301       H  0.10963187  0.34679054  0.19388696     0.10300
C2302       C  0.09877377  0.37367394  0.27434784    -0.15600
C2303       C  0.09917151  0.37151191  0.29729827     0.03300
C2304       C  0.11868843  0.37657929  0.30912521    -0.10900
C2305       C  0.13746294  0.38330901  0.29729566    -0.01000
C2306       C  0.13715412  0.38485626  0.27431026    -0.06100
H2307       H  0.08373984  0.36981942  0.26547274     0.06300
H2308       H  0.15261211  0.38723088  0.30592438     0.09700
Br2309     Br  0.10748514  0.33303312  0.23969967    -0.05800
Br2310     Br  0.13016003  0.42863896  0.19103156    -0.02800
Br2311     Br  0.07289941  0.35997805  0.31079235     0.00100
Br2312     Br  0.16414723  0.39259765  0.25967095    -0.04300
C2313       C  0.12216832  0.43958904  0.37647560    -0.11700
C2314       C  0.13895486  0.45221978  0.38657685     0.03800
C2315       C  0.13854677  0.47520035  0.38510325    -0.12200
C2316       C  0.12178922  0.48598713  0.37350010     0.18600
C2317       C  0.10530283  0.47349491  0.36293736    -0.09300
C2318       C  0.10540728  0.45047948  0.36475703    -0.02200
H2319       H  0.15128703  0.48476542  0.39323691     0.05200
C2320       C  0.12182298  0.51030664  0.37299566     0.20600
H2321       H  0.09269733  0.44102918  0.35645365     0.10300
C2322       C  0.13827033  0.52134010  0.36106482    -0.15600
C2323       C  0.13951215  0.54438866  0.36119055     0.03300
C2324       C  0.12410847  0.55672601  0.37357305    -0.10900
C2325       C  0.10756960  0.54558205  0.38535274    -0.01000
C2326       C  0.10646762  0.52256769  0.38532143    -0.06100
H2327       H  0.15015797  0.51194886  0.35158170     0.06300
H2328       H  0.09571672  0.55480363  0.39503915     0.09700
Br2329     Br  0.08299789  0.48711748  0.34511128    -0.05800
Br2330     Br  0.16238281  0.43937391  0.40342997    -0.02800
Br2331     Br  0.16176518  0.55794258  0.34315826     0.00100
Br2332     Br  0.08442362  0.50858689  0.40323432    -0.04300
C2333       C  0.12572263  0.36888010  0.44163491    -0.11700
C2334       C  0.14261900  0.37832503  0.45464791     0.03800
C2335       C  0.14160224  0.37680484  0.47765905    -0.12200
C2336       C  0.12438568  0.36540243  0.48808387     0.18600
C2337       C  0.10811359  0.35510154  0.47512640    -0.09300
C2338       C  0.10872592  0.35713240  0.45217817    -0.02200
H2339       H  0.15416151  0.38485182  0.48752499     0.05200
C2340       C  0.12296263  0.36560087  0.51244753     0.20600
H2341       H  0.09591114  0.34926764  0.44249942     0.10300
C2342       C  0.10520093  0.37644931  0.52254074    -0.15600
C2343       C  0.10363767  0.37792698  0.54551031     0.03300
C2344       C  0.12022445  0.36851244  0.55886971    -0.10900
C2345       C  0.13800817  0.35765003  0.54867697    -0.01000
C2346       C  0.13943448  0.35606686  0.52570584    -0.06100
H2347       H  0.09265734  0.38416891  0.51243168     0.06300
H2348       H  0.15083323  0.35020395  0.55863238     0.09700
Br2349     Br  0.08515708  0.33749112  0.48798416    -0.05800
Br2350     Br  0.16697257  0.39434916  0.44241266    -0.02800
Br2351     Br  0.07929729  0.39438542  0.55731757     0.00100
Br2352     Br  0.16383803  0.34022285  0.51324350    -0.04300
C2353       C  0.80886906  0.87450398  0.38036666    -0.11700
C2354       C  0.79602022  0.87234822  0.39981519     0.03800
C2355       C  0.77300835  0.87334041  0.39856193    -0.12200
C2356       C  0.76232112  0.87628360  0.37833263     0.18600
C2357       C  0.77487890  0.87836479  0.35898359    -0.09300
C2358       C  0.79789134  0.87742353  0.36009007    -0.02200
H2359       H  0.76332143  0.87170720  0.41349628     0.05200
C2360       C  0.73803283  0.87752820  0.37792669     0.20600
H2361       H  0.80721061  0.87921981  0.34495689     0.10300
C2362       C  0.72770772  0.89700956  0.38478970    -0.15600
C2363       C  0.70470160  0.89866312  0.38533258     0.03300
C2364       C  0.69156515  0.88044014  0.37884676    -0.10900
C2365       C  0.70212098  0.86088171  0.37211109    -0.01000
C2366       C  0.72511122  0.85932096  0.37165549    -0.06100
H2367       H  0.73765057  0.91095287  0.38996322     0.06300
H2368       H  0.69247144  0.84667396  0.36712859     0.09700
Br2369     Br  0.76126601  0.88302487  0.33080017    -0.05800
Br2370     Br  0.80820296  0.86752606  0.42868243    -0.02800
Br2371     Br  0.69268531  0.92585899  0.39632095     0.00100
Br2372     Br  0.73818770  0.83184659  0.36293381    -0.04300
C2373       C  0.87475798  0.80661237  0.38054279    -0.11700
C2374       C  0.87545158  0.79360324  0.39999221     0.03800
C2375       C  0.87552237  0.77054264  0.39840285    -0.12200
C2376       C  0.87480163  0.76003625  0.37785024     0.18600
C2377       C  0.87397666  0.77276204  0.35855565    -0.09300
C2378       C  0.87405853  0.79575956  0.35998061    -0.02200
H2379       H  0.87596766  0.76070046  0.41331160     0.05200
C2380       C  0.87397387  0.73574980  0.37681933     0.20600
H2381       H  0.87343992  0.80515216  0.34480489     0.10300
C2382       C  0.85342967  0.72532152  0.37589075    -0.15600
C2383       C  0.85178177  0.70234637  0.37455030     0.03300
C2384       C  0.87119205  0.68925457  0.37414573    -0.10900
C2385       C  0.89180096  0.69999390  0.37508742    -0.01000
C2386       C  0.89327473  0.72299233  0.37642611    -0.06100
H2387       H  0.83853958  0.73519368  0.37614157     0.06300
H2388       H  0.90692863  0.69051566  0.37480658     0.09700
Br2389     Br  0.87256149  0.75933502  0.32991166    -0.05800
Br2390     Br  0.87622052  0.80565246  0.42931729    -0.02800
Br2391     Br  0.82232883  0.69063225  0.37335622     0.00100
Br2392     Br  0.92192976  0.73638048  0.37751131    -0.04300
C2393       C  0.88029772  0.18958838  0.37005333    -0.11700
C2394       C  0.86852883  0.20190292  0.35415360     0.03800
C2395       C  0.86861364  0.22496292  0.35516588    -0.12200
C2396       C  0.88035498  0.23609747  0.37168159     0.18600
C2397       C  0.89225465  0.22391792  0.38741460    -0.09300
C2398       C  0.89211349  0.20087244  0.38653148    -0.02200
H2399       H  0.85918691  0.23429256  0.34319685     0.05200
C2400       C  0.87882265  0.26035538  0.37297544     0.20600
H2401       H  0.90126533  0.19172413  0.39884555     0.10300
C2402       C  0.85916041  0.26987925  0.38042755    -0.15600
C2403       C  0.85681353  0.29279827  0.38177743     0.03300
C2404       C  0.87458697  0.30669828  0.37566793    -0.10900
C2405       C  0.89427609  0.29693145  0.36814567    -0.01000
C2406       C  0.89640475  0.27402286  0.36657377    -0.06100
H2407       H  0.84553691  0.25935569  0.38526315     0.06300
H2408       H  0.90800398  0.30714472  0.36298666     0.09700
Br2409     Br  0.90822414  0.23801298  0.41085915    -0.05800
Br2410     Br  0.85070621  0.18843073  0.33167289    -0.02800
Br2411     Br  0.82901019  0.30352507  0.39253220     0.00100
Br2412     Br  0.92323458  0.26214313  0.35472997    -0.04300
C2413       C  0.81439488  0.12114482  0.37167750    -0.11700
C2414       C  0.80229418  0.10822420  0.35647855     0.03800
C2415       C  0.77923089  0.10813181  0.35729037    -0.12200
C2416       C  0.76792674  0.12056001  0.37315960     0.18600
C2417       C  0.77993840  0.13275786  0.38883970    -0.09300
C2418       C  0.80296588  0.13303684  0.38796476    -0.02200
H2419       H  0.77004747  0.09826618  0.34553189     0.05200
C2420       C  0.74359394  0.12043931  0.37324668     0.20600
H2421       H  0.81196933  0.14272459  0.40000371     0.10300
C2422       C  0.73238110  0.10185695  0.38115540    -0.15600
C2423       C  0.70931364  0.10132906  0.38182979     0.03300
C2424       C  0.69705082  0.11977521  0.37445164    -0.10900
C2425       C  0.70847593  0.13829191  0.36638000    -0.01000
C2426       C  0.73150400  0.13865731  0.36557459    -0.06100
H2427       H  0.74166221  0.08778775  0.38708189     0.06300
H2428       H  0.69946156  0.15248128  0.36034569     0.09700
Br2429     Br  0.76556595  0.14881036  0.41203479    -0.05800
Br2430     Br  0.81617572  0.08912493  0.33534196    -0.02800
Br2431     Br  0.69595725  0.07532714  0.39402921     0.00100
Br2432     Br  0.74578538  0.16412180  0.35332214    -0.04300
C2433       C  0.87767680  0.93979746  0.37921365    -0.11700
C2434       C  0.88420238  0.95282430  0.39750905     0.03800
C2435       C  0.88494067  0.97581544  0.39557375    -0.12200
C2436       C  0.87915269  0.98629925  0.37581425     0.18600
C2437       C  0.87287593  0.97345933  0.35754354    -0.09300
C2438       C  0.87222587  0.95049017  0.35933264    -0.02200
H2439       H  0.89002187  0.98564742  0.40962831     0.05200
C2440       C  0.87954281  0.01065142  0.37471839     0.20600
H2441       H  0.86713310  0.94098124  0.34507435     0.10300
C2442       C  0.89493981  0.02124154  0.36105281    -0.15600
C2443       C  0.89573691  0.04428357  0.35979763     0.03300
C2444       C  0.88112483  0.05704191  0.37262680    -0.10900
C2445       C  0.86594615  0.04642434  0.38647994    -0.01000
C2446       C  0.86491922  0.02342862  0.38745055    -0.06100
H2447       H  0.90644519  0.01152382  0.35143123     0.06300
H2448       H  0.85451456  0.05607210  0.39626401     0.09700
Br2449     Br  0.86416778  0.98654580  0.33007011    -0.05800
Br2450     Br  0.89296168  0.94076110  0.42546399    -0.02800
Br2451     Br  0.91791459  0.05742195  0.34139335     0.00100
Br2452     Br  0.84263882  0.01024713  0.40567276    -0.04300
C2453       C  0.12542678  0.68931360  0.37546305    -0.11700
C2454       C  0.10935091  0.70165288  0.38696039     0.03800
C2455       C  0.10983912  0.72469655  0.38614981    -0.12200
C2456       C  0.12609665  0.73575349  0.37403724     0.18600
C2457       C  0.14234233  0.72356056  0.36285950    -0.09300
C2458       C  0.14195295  0.70050530  0.36367747    -0.02200
H2459       H  0.09755542  0.73407386  0.39512664     0.05200
C2460       C  0.12619364  0.76006051  0.37391053     0.20600
H2461       H  0.15445451  0.69129055  0.35483866     0.10300
C2462       C  0.13535380  0.77130533  0.39187088    -0.15600
C2463       C  0.13543948  0.79435633  0.39262419     0.03300
C2464       C  0.12593772  0.80658725  0.37514990    -0.10900
C2465       C  0.11696655  0.79514304  0.35704473    -0.01000
C2466       C  0.11697106  0.77206854  0.35637724    -0.06100
H2467       H  0.14263647  0.76205559  0.40531191     0.06300
H2468       H  0.10962615  0.80414983  0.34347973     0.09700
Br2469     Br  0.16540973  0.73777477  0.34651700    -0.05800
Br2470     Br  0.08722823  0.68817618  0.40521353    -0.02800
Br2471     Br  0.14995940  0.80777624  0.41742982     0.00100
Br2472     Br  0.10386616  0.75754365  0.33147947    -0.04300
C2473       C  0.30917618  0.87020056  0.37137372    -0.11700
C2474       C  0.29686405  0.85027079  0.37168898     0.03800
C2475       C  0.27380755  0.85100300  0.37140654    -0.12200
C2476       C  0.26261980  0.87115509  0.37084560     0.18600
C2477       C  0.27462767  0.89094265  0.37044692    -0.09300
C2478       C  0.29764560  0.89037185  0.37065307    -0.02200
H2479       H  0.26449360  0.83573952  0.37184944     0.05200
C2480       C  0.23836936  0.87124857  0.37170859     0.20600
H2481       H  0.30650888  0.90589182  0.37038184     0.10300
C2482       C  0.22798864  0.87263727  0.39224583    -0.15600
C2483       C  0.20500573  0.87291295  0.39392075     0.03300
C2484       C  0.19190305  0.87190356  0.37454620    -0.10900
C2485       C  0.20260009  0.87037450  0.35395327    -0.01000
C2486       C  0.22559291  0.86996047  0.35245777    -0.06100
H2487       H  0.23789710  0.87353454  0.40709988     0.06300
H2488       H  0.19309594  0.86945442  0.33885301     0.09700
Br2489     Br  0.26017520  0.91909013  0.36981052    -0.05800
Br2490     Br  0.30983830  0.82137458  0.37279565    -0.02800
Br2491     Br  0.19326981  0.87474677  0.42332003     0.00100
Br2492     Br  0.23893563  0.86768352  0.32385363    -0.04300
C2493       C  0.05887054  0.87340154  0.37654772    -0.11700
C2494       C  0.04584628  0.86702186  0.35821617     0.03800
C2495       C  0.02284342  0.86747628  0.35976846    -0.12200
C2496       C  0.01235770  0.87416125  0.37923815     0.04200
C2497       C  0.02516898  0.88032391  0.39755658    -0.09300
C2498       C  0.04817617  0.87988368  0.39612198    -0.02200
H2499       H  0.01300871  0.86244284  0.34570625     0.05200
C2500       C  0.98802150  0.87432216  0.38005770     0.20600
H2501       H  0.05772904  0.88490810  0.41036962     0.10300
C2502       C  0.97695904  0.85840963  0.39270580    -0.15600
C2503       C  0.95390329  0.85757356  0.39306205     0.03300
C2504       C  0.94162897  0.87273027  0.38043540    -0.10900
C2505       C  0.95271472  0.88855698  0.36771457    -0.01000
C2506       C  0.97573886  0.88956591  0.36759845    -0.06100
H2507       H  0.98631675  0.84643052  0.40208526     0.06300
H2508       H  0.94341227  0.90042993  0.35814179     0.09700
Br2509     Br  0.01196682  0.89015629  0.42459414    -0.05800
Br2510     Br  0.05795357  0.85652592  0.33086424    -0.02800
Br2511     Br  0.94003218  0.83455230  0.40982015     0.00100
Br2512     Br  0.98970905  0.91246764  0.35079599    -0.04300
C2513       C  0.19655108  0.12613776  0.37671175    -0.11700
C2514       C  0.20870096  0.13199247  0.39585281     0.03800
C2515       C  0.23173432  0.13270485  0.39503963    -0.12200
C2516       C  0.24303229  0.12791860  0.37550509     0.18600
C2517       C  0.23112634  0.12249909  0.35639541    -0.09300
C2518       C  0.20813026  0.12164319  0.35709208    -0.02200
H2519       H  0.24093923  0.13700565  0.40975546     0.05200
C2520       C  0.26730559  0.12802263  0.37552412     0.20600
H2521       H  0.19931300  0.11731024  0.34216359     0.10300
C2522       C  0.27850472  0.10790087  0.37658589    -0.15600
C2523       C  0.30153453  0.10716046  0.37660331     0.03300
C2524       C  0.31384759  0.12704806  0.37532519    -0.10900
C2525       C  0.30235028  0.14722251  0.37450043    -0.01000
C2526       C  0.27931374  0.14780947  0.37466275    -0.06100
H2527       H  0.26920467  0.09264759  0.37750604     0.06300
H2528       H  0.31126122  0.16269022  0.37358275     0.09700
Br2529     Br  0.24564526  0.11647029  0.32892794    -0.05800
Br2530     Br  0.19543733  0.13994468  0.42353987    -0.02800
Br2531     Br  0.31446303  0.07831176  0.37901344     0.00100
Br2532     Br  0.26486690  0.17592319  0.37326132    -0.04300
C2533       C  0.12901759  0.18967255  0.37357267    -0.11700
C2534       C  0.14201544  0.20173773  0.35846806     0.03800
C2535       C  0.14080339  0.22478127  0.35812652    -0.12200
C2536       C  0.12675741  0.23608859  0.37259024     0.18600
C2537       C  0.11372886  0.22409263  0.38758638    -0.09300
C2538       C  0.11508000  0.20107377  0.38812318    -0.02200
H2539       H  0.15099203  0.23395904  0.34666146     0.05200
C2540       C  0.12618993  0.26042302  0.37213132     0.20600
H2541       H  0.10496865  0.19202624  0.39975434     0.10300
C2542       C  0.10773201  0.27116319  0.36333116    -0.15600
C2543       C  0.10637378  0.29421254  0.36328000     0.03300
C2544       C  0.12378613  0.30690567  0.37224615    -0.10900
C2545       C  0.14246948  0.29600062  0.38057349    -0.01000
C2546       C  0.14375049  0.27299005  0.38060681    -0.06100
H2547       H  0.09431664  0.26152718  0.35647530     0.06300
H2548       H  0.15601305  0.30539350  0.38750760     0.09700
Br2549     Br  0.09418405  0.23850502  0.40787982    -0.05800
Br2550     Br  0.16271445  0.18783499  0.33892493    -0.02800
Br2551     Br  0.08085408  0.30711224  0.34970763     0.00100
Br2552     Br  0.16942900  0.25941837  0.39314997    -0.04300
C2553       C  0.94694275  0.12343757  0.37118960    -0.11700
C2554       C  0.95961237  0.13481346  0.35528336     0.03800
C2555       C  0.98262633  0.13377383  0.35610647    -0.12200
C2556       C  0.99331657  0.12158805  0.37255430     0.18600
C2557       C  0.98077686  0.11034704  0.38847818    -0.09300
C2558       C  0.95778218  0.11137759  0.38773835    -0.02200
H2559       H  0.99227497  0.14274350  0.34402635     0.05200
C2560       C  0.01759123  0.12143476  0.37322813     0.20600
H2561       H  0.94832653  0.10245299  0.39999975     0.10300
C2562       C  0.02845241  0.13423995  0.38911598    -0.15600
C2563       C  0.05146496  0.13501271  0.38989063     0.03300
C2564       C  0.06395742  0.12274318  0.37451753    -0.10900
C2565       C  0.05299403  0.11007670  0.35850067    -0.01000
C2566       C  0.02996990  0.10927331  0.35784005    -0.06100
H2567       H  0.01894695  0.14389820  0.40077593     0.06300
H2568       H  0.06236610  0.10049846  0.34667122     0.09700
Br2569     Br  0.99436988  0.09298834  0.41115958    -0.05800
Br2570     Br  0.94669848  0.15321320  0.33298910    -0.02800
Br2571     Br  0.06471673  0.15431480  0.41128530     0.00100
Br2572     Br  0.01608006  0.09092657  0.33608984    -0.04300
C2573       C  0.13037211  0.05695546  0.37689428    -0.11700
C2574       C  0.11908771  0.04449659  0.36070671     0.03800
C2575       C  0.11939781  0.02145391  0.36159926    -0.12200
C2576       C  0.13075598  0.01037299  0.37837241     0.18600
C2577       C  0.14226570  0.02269640  0.39438314    -0.09300
C2578       C  0.14177525  0.04579764  0.39370129    -0.02200
H2579       H  0.11048818  0.01207509  0.34924437     0.05200
C2580       C  0.13038741  0.98596140  0.37853577     0.20600
H2581       H  0.15074147  0.05507312  0.40608606     0.10300
C2582       C  0.14115683  0.97445902  0.36160265    -0.15600
C2583       C  0.14017404  0.95141591  0.36038561     0.03300
C2584       C  0.12811891  0.93944876  0.37634700    -0.10900
C2585       C  0.11752855  0.95103216  0.39341469    -0.01000
C2586       C  0.11836371  0.97408418  0.39446171    -0.06100
H2587       H  0.15040044  0.98349665  0.34926059     0.06300
H2588       H  0.10811402  0.94214405  0.40573270     0.09700
Br2589     Br  0.15962469  0.00872782  0.41684015    -0.05800
Br2590     Br  0.10180925  0.05775739  0.33770467    -0.02800
Br2591     Br  0.15664847  0.93735441  0.33725540     0.00100
Br2592     Br  0.10182376  0.98864711  0.41719242    -0.04300
loop_ 
_geom_bond_atom_site_label_1 
_geom_bond_atom_site_label_2 
_geom_bond_distance 
_geom_bond_site_symmetry_2 
_ccdc_geom_bond_type 
O1            V9   1.905       .  S
O1           C11   1.266       .  A
O2            V9   1.902       .  S
O2           C12   1.265       .  A
O3            V9   1.893       .  S
O3           C13   1.262       .  A
O4            V9   1.894       .  S
O4           C14   1.262       .  A
O5           V10   1.899       .  S
O5           C14   1.266       .  A
O6           V10   1.900       .  S
O6           C13   1.265       .  A
O7           V10   1.895       .  S
O7           C12   1.263       .  A
O8           V10   1.895       .  S
O8           C11   1.263       .  A
V9           V10   2.086       .  T
C11        C2573   1.480       .  S
C12        C2533   1.474       .  S
C13        C2564   1.473       .  S
C14        C2513   1.484       .  S
O15          V23   1.895       .  S
O15          C25   1.263       .  A
O16          V23   1.898       .  S
O16          C26   1.264       .  A
O17          V23   1.898       .  S
O17          C27   1.265       .  A
O18          V23   1.896       .  S
O18          C28   1.263       .  A
O19          V24   1.898       .  S
O19          C28   1.265       .  A
O20          V24   1.899       .  S
O20          C27   1.264       .  A
O21          V24   1.901       .  S
O21          C26   1.265       .  A
O22          V24   1.902       .  S
O22          C25   1.265       .  A
V23          V24   2.084       .  T
C25        C2464   1.481       .  S
C26        C2584   1.480       .  S
C27        C2493   1.484       .  S
C28        C2484   1.486       .  S
O29          V37   1.897       .  S
O29          C39   1.265       .  A
O30          V37   1.896       .  S
O30          C40   1.264       .  A
O31          V37   1.896       .  S
O31          C41   1.264       .  A
O32          V37   1.897       .  S
O32          C42   1.264       .  A
O33          V38   1.900       .  S
O33          C42   1.264       .  A
O34          V38   1.898       .  S
O34          C41   1.264       .  A
O35          V38   1.898       .  S
O35          C40   1.264       .  A
O36          V38   1.899       .  S
O36          C39   1.264       .  A
V37          V38   2.085       .  T
C39        C2393   1.479       .  S
C40        C2444   1.471       .  S
C41        C2553   1.476       .  S
C42        C2413   1.478       .  S
O43          V51   1.897       .  S
O43          C53   1.263       .  A
O44          V51   1.897       .  S
O44          C54   1.263       .  A
O45          V51   1.900       .  S
O45          C55   1.264       .  A
O46          V51   1.902       .  S
O46          C56   1.264       .  A
O47          V52   1.895       .  S
O47          C56   1.264       .  A
O48          V52   1.897       .  S
O48          C55   1.265       .  A
O49          V52   1.901       .  S
O49          C54   1.266       .  A
O50          V52   1.899       .  S
O50          C53   1.264       .  A
V51          V52   2.083       .  T
C53        C2504   1.470       .  S
C54        C2353   1.488       .  S
C55        C2373   1.489       .  S
C56        C2433   1.485       .  S
O57          V65   1.894       .  S
O57          C67   1.262       .  A
O58          V65   1.895       .  S
O58          C68   1.264       .  A
O59          V65   1.902       .  S
O59          C69   1.266       .  A
O60          V65   1.904       .  S
O60          C70   1.265       .  A
O61          V66   1.895       .  S
O61          C70   1.264       .  A
O62          V66   1.892       .  S
O62          C69   1.261       .  A
O63          V66   1.901       .  S
O63          C68   1.264       .  A
O64          V66   1.903       .  S
O64          C67   1.265       .  A
V65          V66   2.085       .  T
C67        C2313   1.477       .  S
C68        C2544   1.480       .  S
C69        C2304   1.483       .  S
C70        C2333   1.481       .  S
O71          V79   1.905       .  S
O71          C81   1.266       .  A
O72          V79   1.906       .  S
O72          C82   1.267       .  A
O73          V79   1.894       .  S
O73          C83   1.263       .  A
O74          V79   1.896       .  S
O74          C84   1.264       .  A
O75          V80   1.903       .  S
O75          C84   1.265       .  A
O76          V80   1.903       .  S
O76          C83   1.265       .  A
O77          V80   1.895       .  S
O77          C82   1.263       .  A
O78          V80   1.896       .  S
O78          C81   1.263       .  A
V79          V80   2.085       .  T
C81        C2273   1.479       .  S
C82        C2233   1.483       .  S
C83        C2344   1.480       .  S
C84        C2253   1.487       .  S
O85          V93   1.905       .  S
O85          C95   1.265       .  A
O86          V93   1.900       .  S
O86          C96   1.266       .  A
O87          V93   1.900       .  S
O87          C97   1.264       .  A
O88          V93   1.898       .  S
O88          C98   1.264       .  A
O89          V94   1.895       .  S
O89          C98   1.264       .  A
O90          V94   1.895       .  S
O90          C97   1.263       .  A
O91          V94   1.896       .  S
O91          C96   1.263       .  A
O92          V94   1.895       .  S
O92          C95   1.264       .  A
V93          V94   2.085       .  T
C95        C2224   1.482       .  S
C96        C2193   1.487       .  S
C97        C2453   1.475       .  S
C98        C2324   1.475       .  S
O99         V107   1.899       .  S
O99         C109   1.264       .  A
O100        V107   1.900       .  S
O100        C110   1.266       .  A
O101        V107   1.905       .  S
O101        C111   1.265       .  A
O102        V107   1.905       .  S
O102        C112   1.265       .  A
O103        V108   1.892       .  S
O103        C112   1.264       .  A
O104        V108   1.896       .  S
O104        C111   1.263       .  A
O105        V108   1.899       .  S
O105        C110   1.264       .  A
O106        V108   1.902       .  S
O106        C109   1.266       .  A
V107        V108   2.084       .  T
C109       C2284   1.481       .  S
C110       C2173   1.488       .  S
C111       C2213   1.475       .  S
C112       C2153   1.488       .  S
O113        V121   1.895       .  S
O113        C123   1.264       .  A
O114        V121   1.894       .  S
O114        C124   1.264       .  A
O115        V121   1.901       .  S
O115        C125   1.265       .  A
O116        V121   1.900       .  S
O116        C126   1.266       .  A
O117        V122   1.899       .  S
O117        C126   1.263       .  A
O118        V122   1.899       .  S
O118        C125   1.264       .  A
O119        V122   1.901       .  S
O119        C124   1.265       .  A
O120        V122   1.901       .  S
O120        C123   1.264       .  A
V121        V122   2.085       .  T
C123       C2144   1.480       .  S
C124       C2093   1.481       .  S
C125       C2113   1.479       .  S
C126       C2424   1.483       .  S
O127        V135   1.898       .  S
O127        C137   1.264       .  A
O128        V135   1.901       .  S
O128        C138   1.265       .  A
O129        V135   1.895       .  S
O129        C139   1.262       .  A
O130        V135   1.900       .  S
O130        C140   1.264       .  A
O131        V136   1.896       .  S
O131        C140   1.263       .  A
O132        V136   1.899       .  S
O132        C139   1.266       .  A
O133        V136   1.898       .  S
O133        C138   1.264       .  A
O134        V136   1.899       .  S
O134        C137   1.264       .  A
V135        V136   2.086       .  T
C137       C2133   1.474       .  S
C138       C2053   1.476       .  S
C139       C2033   1.487       .  S
C140       C2073   1.473       .  S
O141        V149   1.894       .  S
O141        C151   1.262       .  A
O142        V149   1.895       .  S
O142        C152   1.264       .  A
O143        V149   1.899       .  S
O143        C153   1.264       .  A
O144        V149   1.898       .  S
O144        C154   1.264       .  A
O145        V150   1.900       .  S
O145        C154   1.264       .  A
O146        V150   1.896       .  S
O146        C153   1.264       .  A
O147        V150   1.903       .  S
O147        C152   1.265       .  A
O148        V150   1.901       .  S
O148        C151   1.266       .  A
V149        V150   2.085       .  T
C151       C2524   1.486       .  S
C152       C2124   1.481       .  S
C153       C2013   1.474       .  S
C154       C1993   1.472       .  S
O155        V163   1.896       .  S
O155        C165   1.264       .  A
O156        V163   1.898       .  S
O156        C166   1.263       .  A
O157        V163   1.897       .  S
O157        C167   1.263       .  A
O158        V163   1.896       .  S
O158        C168   1.263       .  A
O159        V164   1.899       .  S
O159        C168   1.265       .  A
O160        V164   1.900       .  S
O160        C167   1.266       .  A
O161        V164   1.896       .  S
O161        C166   1.265       .  A
O162        V164   1.894       .  S
O162        C165   1.262       .  A
V163        V164   2.085       .  T
C165       C1973   1.475       .  S
C166       C2084   1.483       .  S
C167       C1953   1.485       .  S
C168       C2024   1.478       .  S
O169        V177   1.900       .  S
O169        C179   1.264       .  A
O170        V177   1.895       .  S
O170        C180   1.264       .  A
O171        V177   1.903       .  S
O171        C181   1.267       .  A
O172        V177   1.900       .  S
O172        C182   1.264       .  A
O173        V178   1.897       .  S
O173        C182   1.263       .  A
O174        V178   1.894       .  S
O174        C181   1.262       .  A
O175        V178   1.900       .  S
O175        C180   1.264       .  A
O176        V178   1.898       .  S
O176        C179   1.264       .  A
V177        V178   2.084       .  T
C179       C1944   1.474       .  S
C180       C1893   1.481       .  S
C181       C2384   1.489       .  S
C182       C1924   1.470       .  S
O183        V191   1.896       .  S
O183        C193   1.263       .  A
O184        V191   1.896       .  S
O184        C194   1.263       .  A
O185        V191   1.898       .  S
O185        C195   1.264       .  A
O186        V191   1.898       .  S
O186        C196   1.263       .  A
O187        V192   1.899       .  S
O187        C196   1.266       .  A
O188        V192   1.897       .  S
O188        C195   1.264       .  A
O189        V192   1.903       .  S
O189        C194   1.266       .  A
O190        V192   1.904       .  S
O190        C193   1.266       .  A
V191        V192   2.084       .  T
C193       C1933   1.480       .  S
C194       C1853   1.490       .  S
C195       C1873   1.475       .  S
C196       C1833   1.487       .  S
O197        V205   1.899       .  S
O197        C207   1.265       .  A
O198        V205   1.894       .  S
O198        C208   1.262       .  A
O199        V205   1.899       .  S
O199        C209   1.264       .  A
O200        V205   1.902       .  S
O200        C210   1.264       .  A
O201        V206   1.896       .  S
O201        C210   1.264       .  A
O202        V206   1.897       .  S
O202        C209   1.265       .  A
O203        V206   1.897       .  S
O203        C208   1.265       .  A
O204        V206   1.900       .  S
O204        C207   1.264       .  A
V205        V206   2.085       .  T
C207       C1813   1.480       .  S
C208       C1804   1.482       .  S
C209       C2404   1.485       .  S
C210       C1913   1.479       .  S
O211        V219   1.893       .  S
O211        C221   1.262       .  A
O212        V219   1.893       .  S
O212        C222   1.264       .  A
O213        V219   1.903       .  S
O213        C223   1.265       .  A
O214        V219   1.900       .  S
O214        C224   1.266       .  A
O215        V220   1.898       .  S
O215        C224   1.263       .  A
O216        V220   1.898       .  S
O216        C223   1.264       .  A
O217        V220   1.903       .  S
O217        C222   1.265       .  A
O218        V220   1.902       .  S
O218        C221   1.265       .  A
V219        V220   2.084       .  T
C221       C1884   1.478       .  S
C222       C1784   1.489       .  S
C223       C1824   1.479       .  S
C224       C1753   1.485       .  S
O225        V233   1.898       .  S
O225        C235   1.263       .  A
O226        V233   1.898       .  S
O226        C236   1.264       .  A
O227        V233   1.899       .  S
O227        C237   1.264       .  A
O228        V233   1.896       .  S
O228        C238   1.263       .  A
O229        V234   1.900       .  S
O229        C238   1.265       .  A
O230        V234   1.898       .  S
O230        C237   1.264       .  A
O231        V234   1.896       .  S
O231        C236   1.264       .  A
O232        V234   1.896       .  S
O232        C235   1.265       .  A
V233        V234   2.084       .  T
C235       C2473   1.487       .  S
C236       C1713   1.475       .  S
C237       C1744   1.479       .  S
C238       C1693   1.482       .  S
O239        V247   1.902       .  S
O239        C249   1.264       .  A
O240        V247   1.902       .  S
O240        C250   1.265       .  A
O241        V247   1.895       .  S
O241        C251   1.262       .  A
O242        V247   1.895       .  S
O242        C252   1.263       .  A
O243        V248   1.902       .  S
O243        C252   1.265       .  A
O244        V248   1.905       .  S
O244        C251   1.267       .  A
O245        V248   1.896       .  S
O245        C250   1.263       .  A
O246        V248   1.896       .  S
O246        C249   1.265       .  A
V247        V248   2.085       .  T
C249       C1633   1.487       .  S
C250       C1684   1.476       .  S
C251       C1653   1.485       .  S
C252       C1733   1.476       .  S
O253        V261   1.897       .  S
O253        C263   1.264       .  A
O254        V261   1.895       .  S
O254        C264   1.264       .  A
O255        V261   1.900       .  S
O255        C265   1.263       .  A
O256        V261   1.897       .  S
O256        C266   1.264       .  A
O257        V262   1.899       .  S
O257        C266   1.264       .  A
O258        V262   1.898       .  S
O258        C265   1.266       .  A
O259        V262   1.898       .  S
O259        C264   1.263       .  A
O260        V262   1.899       .  S
O260        C263   1.264       .  A
V261        V262   2.084       .  T
C263       C1673   1.480       .  S
C264       C1604   1.482       .  S
C265       C1573   1.489       .  S
C266       C1613   1.474       .  S
O267        V275   1.903       .  S
O267        C277   1.265       .  A
O268        V275   1.901       .  S
O268        C278   1.265       .  A
O269        V275   1.901       .  S
O269        C279   1.264       .  A
O270        V275   1.899       .  S
O270        C280   1.264       .  A
O271        V276   1.898       .  S
O271        C280   1.265       .  A
O272        V276   1.894       .  S
O272        C279   1.264       .  A
O273        V276   1.898       .  S
O273        C278   1.264       .  A
O274        V276   1.896       .  S
O274        C277   1.264       .  A
V275        V276   2.086       .  T
C277       C1624   1.477       .  S
C278       C1553   1.479       .  S
C279       C1724   1.477       .  S
C280       C2364   1.484       .  S
O281        V289   1.900       .  S
O281        C291   1.264       .  A
O282        V289   1.902       .  S
O282        C292   1.265       .  A
O283        V289   1.893       .  S
O283        C293   1.264       .  A
O284        V289   1.896       .  S
O284        C294   1.264       .  A
O285        V290   1.903       .  S
O285        C294   1.265       .  A
O286        V290   1.904       .  S
O286        C293   1.265       .  A
O287        V290   1.897       .  S
O287        C292   1.263       .  A
O288        V290   1.898       .  S
O288        C291   1.264       .  A
V289        V290   2.085       .  T
C291       C2184   1.480       .  S
C292       C1544   1.472       .  S
C293       C1644   1.489       .  S
C294       C1524   1.478       .  S
O295        V303   1.890       .  S
O295        C305   1.261       .  A
O296        V303   1.893       .  S
O296        C306   1.262       .  A
O297        V303   1.903       .  S
O297        C307   1.265       .  A
O298        V303   1.902       .  S
O298        C308   1.265       .  A
O299        V304   1.898       .  S
O299        C308   1.264       .  A
O300        V304   1.898       .  S
O300        C307   1.264       .  A
O301        V304   1.900       .  S
O301        C306   1.266       .  A
O302        V304   1.901       .  S
O302        C305   1.266       .  A
V303        V304   2.084       .  T
C305       C1984   1.482       .  S
C306       C1493   1.483       .  S
C307       C2244   1.476       .  S
C308       C1533   1.482       .  S
O309        V317   1.895       .  S
O309        C319   1.263       .  A
O310        V317   1.895       .  S
O310        C320   1.264       .  A
O311        V317   1.897       .  S
O311        C321   1.264       .  A
O312        V317   1.900       .  S
O312        C322   1.264       .  A
O313        V318   1.895       .  S
O313        C322   1.264       .  A
O314        V318   1.899       .  S
O314        C321   1.265       .  A
O315        V318   1.901       .  S
O315        C320   1.264       .  A
O316        V318   1.900       .  S
O316        C319   1.264       .  A
V317        V318   2.084       .  T
C319       C1504   1.471       .  S
C320       C2044   1.486       .  S
C321       C1773   1.484       .  S
C322       C1473   1.483       .  S
O323        V331   1.901       .  S
O323        C333   1.264       .  A
O324        V331   1.899       .  S
O324        C334   1.265       .  A
O325        V331   1.900       .  S
O325        C335   1.264       .  A
O326        V331   1.901       .  S
O326        C336   1.265       .  A
O327        V332   1.895       .  S
O327        C336   1.263       .  A
O328        V332   1.895       .  S
O328        C335   1.263       .  A
O329        V332   1.898       .  S
O329        C334   1.264       .  A
O330        V332   1.895       .  S
O330        C333   1.265       .  A
V331        V332   2.085       .  T
C333       C1593   1.487       .  S
C334       C1513   1.479       .  S
C335       C1484   1.473       .  S
C336       C1844   1.480       .  S
O337        V345   1.899       .  S
O337        C347   1.264       .  A
O338        V345   1.896       .  S
O338        C348   1.263       .  A
O339        V345   1.898       .  S
O339        C349   1.264       .  A
O340        V345   1.896       .  S
O340        C350   1.264       .  A
O341        V346   1.901       .  S
O341        C350   1.264       .  A
O342        V346   1.903       .  S
O342        C349   1.265       .  A
O343        V346   1.901       .  S
O343        C348   1.265       .  A
O344        V346   1.900       .  S
O344        C347   1.265       .  A
V345        V346   2.086       .  T
C347       C2004   1.479       .  S
C348       C1453   1.480       .  S
C349       C1433   1.483       .  S
C350       C1413   1.476       .  S
O351        V359   1.904       .  S
O351        C361   1.265       .  A
O352        V359   1.902       .  S
O352        C362   1.265       .  A
O353        V359   1.904       .  S
O353        C363   1.266       .  A
O354        V359   1.899       .  S
O354        C364   1.264       .  A
O355        V360   1.898       .  S
O355        C364   1.264       .  A
O356        V360   1.895       .  S
O356        C363   1.263       .  A
O357        V360   1.894       .  S
O357        C362   1.263       .  A
O358        V360   1.892       .  S
O358        C361   1.262       .  A
V359        V360   2.086       .  T
C361       C1393   1.473       .  S
C362       C1373   1.476       .  S
C363       C1964   1.488       .  S
C364       C1464   1.475       .  S
O365        V373   1.896       .  S
O365        C375   1.263       .  A
O366        V373   1.894       .  S
O366        C376   1.264       .  A
O367        V373   1.898       .  S
O367        C377   1.265       .  A
O368        V373   1.896       .  S
O368        C378   1.264       .  A
O369        V374   1.898       .  S
O369        C378   1.263       .  A
O370        V374   1.899       .  S
O370        C377   1.264       .  A
O371        V374   1.901       .  S
O371        C376   1.265       .  A
O372        V374   1.900       .  S
O372        C375   1.266       .  A
V373        V374   2.084       .  T
C375       C1333   1.487       .  S
C376       C1404   1.477       .  S
C377       C1664   1.482       .  S
C378       C1353   1.472       .  S
O379        V387   1.900       .  S
O379        C389   1.264       .  A
O380        V387   1.900       .  S
O380        C390   1.264       .  A
O381        V387   1.894       .  S
O381        C391   1.263       .  A
O382        V387   1.897       .  S
O382        C392   1.265       .  A
O383        V388   1.898       .  S
O383        C392   1.263       .  A
O384        V388   1.900       .  S
O384        C391   1.264       .  A
O385        V388   1.897       .  S
O385        C390   1.265       .  A
O386        V388   1.901       .  S
O386        C389   1.264       .  A
V387        V388   2.086       .  T
C389       C1444   1.477       .  S
C390       C1324   1.483       .  S
C391       C1364   1.474       .  S
C392       C1704   1.486       .  S
O393        V401   1.897       .  S
O393        C403   1.264       .  A
O394        V401   1.898       .  S
O394        C404   1.264       .  A
O395        V401   1.902       .  S
O395        C405   1.266       .  A
O396        V401   1.901       .  S
O396        C406   1.265       .  A
O397        V402   1.893       .  S
O397        C406   1.263       .  A
O398        V402   1.893       .  S
O398        C405   1.262       .  A
O399        V402   1.896       .  S
O399        C404   1.263       .  A
O400        V402   1.892       .  S
O400        C403   1.262       .  A
V401        V402   2.086       .  T
C403       C1793   1.476       .  S
C404       C1304   1.475       .  S
C405       C1284   1.483       .  S
C406       C1253   1.477       .  S
O407        V415   1.892       .  S
O407        C417   1.263       .  A
O408        V415   1.890       .  S
O408        C418   1.261       .  A
O409        V415   1.899       .  S
O409        C419   1.265       .  A
O410        V415   1.898       .  S
O410        C420   1.265       .  A
O411        V416   1.899       .  S
O411        C420   1.263       .  A
O412        V416   1.897       .  S
O412        C419   1.263       .  A
O413        V416   1.906       .  S
O413        C418   1.267       .  A
O414        V416   1.908       .  S
O414        C417   1.266       .  A
V415        V416   2.084       .  T
C417       C1233   1.482       .  S
C418       C1213   1.487       .  S
C419       C1293   1.480       .  S
C420       C1764   1.483       .  S
O421        V429   1.895       .  S
O421        C431   1.262       .  A
O422        V429   1.896       .  S
O422        C432   1.265       .  A
O423        V429   1.901       .  S
O423        C433   1.266       .  A
O424        V429   1.901       .  S
O424        C434   1.265       .  A
O425        V430   1.895       .  S
O425        C434   1.264       .  A
O426        V430   1.893       .  S
O426        C433   1.261       .  A
O427        V430   1.901       .  S
O427        C432   1.264       .  A
O428        V430   1.900       .  S
O428        C431   1.265       .  A
V429        V430   2.086       .  T
C431       C1273   1.468       .  S
C432       C1173   1.488       .  S
C433       C2293   1.483       .  S
C434       C1204   1.475       .  S
O435        V443   1.903       .  S
O435        C445   1.265       .  A
O436        V443   1.903       .  S
O436        C446   1.265       .  A
O437        V443   1.897       .  S
O437        C447   1.263       .  A
O438        V443   1.899       .  S
O438        C448   1.265       .  A
O439        V444   1.900       .  S
O439        C448   1.264       .  A
O440        V444   1.902       .  S
O440        C447   1.265       .  A
O441        V444   1.897       .  S
O441        C446   1.263       .  A
O442        V444   1.895       .  S
O442        C445   1.264       .  A
V443        V444   2.085       .  T
C445       C1153   1.486       .  S
C446       C1244   1.477       .  S
C447       C1193   1.477       .  S
C448       C2264   1.489       .  S
O449        V457   1.895       .  S
O449        C459   1.263       .  A
O450        V457   1.896       .  S
O450        C460   1.263       .  A
O451        V457   1.900       .  S
O451        C461   1.264       .  A
O452        V457   1.902       .  S
O452        C462   1.265       .  A
O453        V458   1.897       .  S
O453        C462   1.264       .  A
O454        V458   1.902       .  S
O454        C461   1.265       .  A
O455        V458   1.898       .  S
O455        C460   1.264       .  A
O456        V458   1.901       .  S
O456        C459   1.266       .  A
V457        V458   2.084       .  T
C459       C1093   1.487       .  S
C460       C1113   1.470       .  S
C461       C1133   1.478       .  S
C462       C1564   1.477       .  S
O463        V471   1.904       .  S
O463        C473   1.265       .  A
O464        V471   1.905       .  S
O464        C474   1.266       .  A
O465        V471   1.893       .  S
O465        C475   1.261       .  A
O466        V471   1.893       .  S
O466        C476   1.263       .  A
O467        V472   1.900       .  S
O467        C476   1.265       .  A
O468        V472   1.902       .  S
O468        C475   1.267       .  A
O469        V472   1.896       .  S
O469        C474   1.263       .  A
O470        V472   1.892       .  S
O470        C473   1.263       .  A
V471        V472   2.085       .  T
C473       C1584   1.482       .  S
C474       C1144   1.482       .  S
C475       C1053   1.486       .  S
C476       C1073   1.473       .  S
O477        V485   1.896       .  S
O477        C487   1.263       .  A
O478        V485   1.897       .  S
O478        C488   1.263       .  A
O479        V485   1.896       .  S
O479        C489   1.263       .  A
O480        V485   1.898       .  S
O480        C490   1.263       .  A
O481        V486   1.903       .  S
O481        C490   1.266       .  A
O482        V486   1.903       .  S
O482        C489   1.266       .  A
O483        V486   1.898       .  S
O483        C488   1.265       .  A
O484        V486   1.900       .  S
O484        C487   1.265       .  A
V485        V486   2.084       .  T
C487       C1084   1.480       .  S
C488       C1013   1.483       .  S
C489       C2064   1.483       .  S
C490       C1044   1.485       .  S
O491        V499   1.898       .  S
O491        C501   1.264       .  A
O492        V499   1.901       .  S
O492        C502   1.264       .  A
O493        V499   1.896       .  S
O493        C503   1.265       .  A
O494        V499   1.895       .  S
O494        C504   1.264       .  A
O495        V500   1.900       .  S
O495        C504   1.264       .  A
O496        V500   1.900       .  S
O496        C503   1.263       .  A
O497        V500   1.898       .  S
O497        C502   1.264       .  A
O498        V500   1.896       .  S
O498        C501   1.264       .  A
V499        V500   2.085       .  T
C501       C2104   1.480       .  S
C502       C1033   1.476       .  S
C503       C1124   1.485       .  S
C504       C1004   1.478       .  S
O505        V513   1.898       .  S
O505        C515   1.264       .  A
O506        V513   1.901       .  S
O506        C516   1.264       .  A
O507        V513   1.899       .  S
O507        C517   1.264       .  A
O508        V513   1.899       .  S
O508        C518   1.264       .  A
O509        V514   1.901       .  S
O509        C518   1.265       .  A
O510        V514   1.901       .  S
O510        C517   1.264       .  A
O511        V514   1.894       .  S
O511        C516   1.264       .  A
O512        V514   1.898       .  S
O512        C515   1.264       .  A
V513        V514   2.086       .  T
C515       C2204   1.481       .  S
C516        C973   1.475       .  S
C517        C953   1.478       .  S
C518        C933   1.482       .  S
O519        V527   1.894       .  S
O519        C529   1.262       .  A
O520        V527   1.893       .  S
O520        C530   1.262       .  A
O521        V527   1.901       .  S
O521        C531   1.265       .  A
O522        V527   1.896       .  S
O522        C532   1.265       .  A
O523        V528   1.898       .  S
O523        C532   1.263       .  A
O524        V528   1.898       .  S
O524        C531   1.264       .  A
O525        V528   1.903       .  S
O525        C530   1.265       .  A
O526        V528   1.902       .  S
O526        C529   1.266       .  A
V527        V528   2.085       .  T
C529        C893   1.481       .  S
C530        C924   1.476       .  S
C531        C984   1.481       .  S
C532       C2164   1.485       .  S
O533        V541   1.902       .  S
O533        C543   1.265       .  A
O534        V541   1.898       .  S
O534        C544   1.266       .  A
O535        V541   1.897       .  S
O535        C545   1.263       .  A
O536        V541   1.898       .  S
O536        C546   1.263       .  A
O537        V542   1.899       .  S
O537        C546   1.266       .  A
O538        V542   1.900       .  S
O538        C545   1.264       .  A
O539        V542   1.900       .  S
O539        C544   1.263       .  A
O540        V542   1.896       .  S
O540        C543   1.264       .  A
V541        V542   2.084       .  T
C543        C913   1.480       .  S
C544        C853   1.489       .  S
C545        C873   1.474       .  S
C546       C1864   1.489       .  S
O547        V555   1.893       .  S
O547        C557   1.263       .  A
O548        V555   1.897       .  S
O548        C558   1.263       .  A
O549        V555   1.901       .  S
O549        C559   1.265       .  A
O550        V555   1.900       .  S
O550        C560   1.264       .  A
O551        V556   1.898       .  S
O551        C560   1.265       .  A
O552        V556   1.900       .  S
O552        C559   1.264       .  A
O553        V556   1.897       .  S
O553        C558   1.265       .  A
O554        V556   1.901       .  S
O554        C557   1.264       .  A
V555        V556   2.086       .  T
C557       C1904   1.473       .  S
C558        C884   1.480       .  S
C559        C964   1.476       .  S
C560        C833   1.478       .  S
O561        V569   1.900       .  S
O561        C571   1.265       .  A
O562        V569   1.901       .  S
O562        C572   1.265       .  A
O563        V569   1.898       .  S
O563        C573   1.265       .  A
O564        V569   1.897       .  S
O564        C574   1.263       .  A
O565        V570   1.904       .  S
O565        C574   1.266       .  A
O566        V570   1.902       .  S
O566        C573   1.265       .  A
O567        V570   1.895       .  S
O567        C572   1.263       .  A
O568        V570   1.895       .  S
O568        C571   1.263       .  A
V569        V570   2.084       .  T
C571        C824   1.481       .  S
C572       C1424   1.478       .  S
C573        C804   1.484       .  S
C574       C1184   1.489       .  S
O575        V583   1.901       .  S
O575        C585   1.265       .  A
O576        V583   1.903       .  S
O576        C586   1.266       .  A
O577        V583   1.897       .  S
O577        C587   1.263       .  A
O578        V583   1.898       .  S
O578        C588   1.264       .  A
O579        V584   1.900       .  S
O579        C588   1.264       .  A
O580        V584   1.897       .  S
O580        C587   1.264       .  A
O581        V584   1.896       .  S
O581        C586   1.263       .  A
O582        V584   1.898       .  S
O582        C585   1.264       .  A
V583        V584   2.085       .  T
C585        C944   1.479       .  S
C586        C773   1.479       .  S
C587       C1313   1.476       .  S
C588        C813   1.475       .  S
O589        V597   1.899       .  S
O589        C599   1.264       .  A
O590        V597   1.896       .  S
O590        C600   1.262       .  A
O591        V597   1.898       .  S
O591        C601   1.264       .  A
O592        V597   1.899       .  S
O592        C602   1.264       .  A
O593        V598   1.900       .  S
O593        C602   1.264       .  A
O594        V598   1.899       .  S
O594        C601   1.264       .  A
O595        V598   1.902       .  S
O595        C600   1.266       .  A
O596        V598   1.902       .  S
O596        C599   1.265       .  A
V597        V598   2.086       .  T
C599        C784   1.482       .  S
C600        C844   1.486       .  S
C601       C1104   1.478       .  S
C602        C764   1.473       .  S
O603        V611   1.896       .  S
O603        C613   1.263       .  A
O604        V611   1.900       .  S
O604        C614   1.265       .  A
O605        V611   1.901       .  S
O605        C615   1.266       .  A
O606        V611   1.900       .  S
O606        C616   1.264       .  A
O607        V612   1.899       .  S
O607        C616   1.265       .  A
O608        V612   1.899       .  S
O608        C615   1.264       .  A
O609        V612   1.902       .  S
O609        C614   1.264       .  A
O610        V612   1.899       .  S
O610        C613   1.265       .  A
V611        V612   2.085       .  T
C613       C1264   1.478       .  S
C614        C793   1.481       .  S
C615        C753   1.484       .  S
C616        C993   1.480       .  S
O617        V625   1.892       .  S
O617        C627   1.262       .  A
O618        V625   1.891       .  S
O618        C628   1.262       .  A
O619        V625   1.901       .  S
O619        C629   1.266       .  A
O620        V625   1.902       .  S
O620        C630   1.264       .  A
O621        V626   1.897       .  S
O621        C630   1.263       .  A
O622        V626   1.893       .  S
O622        C629   1.261       .  A
O623        V626   1.904       .  S
O623        C628   1.266       .  A
O624        V626   1.902       .  S
O624        C627   1.266       .  A
V625        V626   2.085       .  T
C627        C904   1.483       .  S
C628        C733   1.474       .  S
C629       C1344   1.487       .  S
C630        C713   1.471       .  S
O631        V639   1.903       .  S
O631        C641   1.265       .  A
O632        V639   1.900       .  S
O632        C642   1.264       .  A
O633        V639   1.896       .  S
O633        C643   1.262       .  A
O634        V639   1.898       .  S
O634        C644   1.264       .  A
O635        V640   1.898       .  S
O635        C644   1.263       .  A
O636        V640   1.897       .  S
O636        C643   1.265       .  A
O637        V640   1.898       .  S
O637        C642   1.264       .  A
O638        V640   1.893       .  S
O638        C641   1.263       .  A
V639        V640   2.085       .  T
C641        C744   1.479       .  S
C642        C864   1.481       .  S
C643       C1064   1.483       .  S
C644        C693   1.471       .  S
O645        V653   1.895       .  S
O645        C655   1.262       .  A
O646        V653   1.894       .  S
O646        C656   1.264       .  A
O647        V653   1.896       .  S
O647        C657   1.263       .  A
O648        V653   1.897       .  S
O648        C658   1.265       .  A
O649        V654   1.899       .  S
O649        C658   1.264       .  A
O650        V654   1.898       .  S
O650        C657   1.264       .  A
O651        V654   1.895       .  S
O651        C656   1.263       .  A
O652        V654   1.899       .  S
O652        C655   1.265       .  A
V653        V654   2.084       .  T
C655       C1224   1.487       .  S
C656        C673   1.475       .  S
C657        C704   1.475       .  S
C658       C1024   1.488       .  S
O659        V667   1.898       .  S
O659        C669   1.264       .  A
O660        V667   1.899       .  S
O660        C670   1.264       .  A
O661        V667   1.895       .  S
O661        C671   1.263       .  A
O662        V667   1.897       .  S
O662        C672   1.263       .  A
O663        V668   1.896       .  S
O663        C672   1.265       .  A
O664        V668   1.896       .  S
O664        C671   1.263       .  A
O665        V668   1.899       .  S
O665        C670   1.264       .  A
O666        V668   1.897       .  S
O666        C669   1.264       .  A
V667        V668   2.086       .  T
C669        C724   1.480       .  S
C670       C1384   1.475       .  S
C671        C684   1.470       .  S
C672       C1164   1.486       .  S
C673        C674   1.414       .  A
C673        C678   1.405       .  A
C674        C675   1.397       .  A
C674       Br690   1.922       .  S
C675        C676   1.401       .  A
C675        H679   1.084       .  S
C676        C680   1.472       .  S
C676        C677   1.405       .  A
C677        C678   1.395       .  A
C677       Br689   1.919       .  S
C678        H681   1.083       .  S
C680        C682   1.401       .  A
C680        C686   1.406       .  A
C682        C683   1.397       .  A
C682        H687   1.084       .  S
C683        C684   1.411       .  A
C683       Br691   1.921       .  S
C684        C685   1.403       .  A
C685        C686   1.396       .  A
C685        H688   1.084       .  S
C686       Br692   1.919       .  S
C693        C694   1.411       .  A
C693        C698   1.402       .  A
C694        C695   1.400       .  A
C694       Br710   1.920       .  S
C695        C696   1.401       .  A
C695        H699   1.084       .  S
C696        C700   1.472       .  S
C696        C697   1.406       .  A
C697        C698   1.396       .  A
C697       Br709   1.919       .  S
C698        H701   1.084       .  S
C700        C702   1.400       .  A
C700        C706   1.405       .  A
C702        C703   1.399       .  A
C702        H707   1.084       .  S
C703        C704   1.413       .  A
C703       Br711   1.921       .  S
C704        C705   1.405       .  A
C705        C706   1.397       .  A
C705        H708   1.084       .  S
C706       Br712   1.918       .  S
C713        C714   1.409       .  A
C713        C718   1.403       .  A
C714        C715   1.399       .  A
C714       Br730   1.918       .  S
C715        C716   1.402       .  A
C715        H719   1.084       .  S
C716        C720   1.474       .  S
C716        C717   1.407       .  A
C717        C718   1.399       .  A
C717       Br729   1.919       .  S
C718        H721   1.084       .  S
C720        C722   1.400       .  A
C720        C726   1.405       .  A
C722        C723   1.399       .  A
C722        H727   1.084       .  S
C723        C724   1.415       .  A
C723       Br731   1.921       .  S
C724        C725   1.406       .  A
C725        C726   1.398       .  A
C725        H728   1.083       .  S
C726       Br732   1.918       .  S
C733        C734   1.410       .  A
C733        C738   1.404       .  A
C734        C735   1.399       .  A
C734       Br750   1.920       .  S
C735        C736   1.404       .  A
C735        H739   1.084       .  S
C736        C740   1.479       .  S
C736        C737   1.408       .  A
C737        C738   1.397       .  A
C737       Br749   1.920       .  S
C738        H741   1.083       .  S
C740        C742   1.404       .  A
C740        C746   1.407       .  A
C742        C743   1.400       .  A
C742        H747   1.084       .  S
C743        C744   1.413       .  A
C743       Br751   1.920       .  S
C744        C745   1.405       .  A
C745        C746   1.395       .  A
C745        H748   1.083       .  S
C746       Br752   1.920       .  S
C753        C754   1.416       .  A
C753        C758   1.407       .  A
C754        C755   1.400       .  A
C754       Br770   1.920       .  S
C755        C756   1.400       .  A
C755        H759   1.084       .  S
C756        C760   1.478       .  S
C756        C757   1.406       .  A
C757        C758   1.398       .  A
C757       Br769   1.919       .  S
C758        H761   1.083       .  S
C760        C762   1.402       .  A
C760        C766   1.408       .  A
C762        C763   1.400       .  A
C762        H767   1.084       .  S
C763        C764   1.411       .  A
C763       Br771   1.920       .  S
C764        C765   1.402       .  A
C765        C766   1.398       .  A
C765        H768   1.084       .  S
C766       Br772   1.919       .  S
C773        C774   1.414       .  A
C773        C778   1.404       .  A
C774        C775   1.399       .  A
C774       Br790   1.921       .  S
C775        C776   1.401       .  A
C775        H779   1.084       .  S
C776        C780   1.480       .  S
C776        C777   1.409       .  A
C777        C778   1.400       .  A
C777       Br789   1.919       .  S
C778        H781   1.083       .  S
C780        C782   1.401       .  A
C780        C786   1.408       .  A
C782        C783   1.399       .  A
C782        H787   1.084       .  S
C783        C784   1.414       .  A
C783       Br791   1.921       .  S
C784        C785   1.406       .  A
C785        C786   1.400       .  A
C785        H788   1.083       .  S
C786       Br792   1.919       .  S
C793        C794   1.413       .  A
C793        C798   1.405       .  A
C794        C795   1.400       .  A
C794       Br810   1.919       .  S
C795        C796   1.403       .  A
C795        H799   1.084       .  S
C796        C800   1.483       .  S
C796        C797   1.408       .  A
C797        C798   1.399       .  A
C797       Br809   1.919       .  S
C798        H801   1.083       .  S
C800        C802   1.403       .  A
C800        C806   1.408       .  A
C802        C803   1.400       .  A
C802        H807   1.084       .  S
C803        C804   1.414       .  A
C803       Br811   1.921       .  S
C804        C805   1.407       .  A
C805        C806   1.399       .  A
C805        H808   1.083       .  S
C806       Br812   1.920       .  S
C813        C814   1.411       .  A
C813        C818   1.404       .  A
C814        C815   1.398       .  A
C814       Br830   1.920       .  S
C815        C816   1.401       .  A
C815        H819   1.084       .  S
C816        C820   1.477       .  S
C816        C817   1.408       .  A
C817        C818   1.399       .  A
C817       Br829   1.919       .  S
C818        H821   1.084       .  S
C820        C822   1.401       .  A
C820        C826   1.406       .  A
C822        C823   1.399       .  A
C822        H827   1.084       .  S
C823        C824   1.416       .  A
C823       Br831   1.922       .  S
C824        C825   1.406       .  A
C825        C826   1.398       .  A
C825        H828   1.083       .  S
C826       Br832   1.919       .  S
C833        C834   1.414       .  A
C833        C838   1.405       .  A
C834        C835   1.400       .  A
C834       Br850   1.921       .  S
C835        C836   1.402       .  A
C835        H839   1.084       .  S
C836        C840   1.477       .  S
C836        C837   1.407       .  A
C837        C838   1.397       .  A
C837       Br849   1.919       .  S
C838        H841   1.083       .  S
C840        C842   1.400       .  A
C840        C846   1.405       .  A
C842        C843   1.400       .  A
C842        H847   1.084       .  S
C843        C844   1.418       .  A
C843       Br851   1.922       .  S
C844        C845   1.408       .  A
C845        C846   1.398       .  A
C845        H848   1.083       .  S
C846       Br852   1.919       .  S
C853        C854   1.419       .  A
C853        C858   1.409       .  A
C854        C855   1.401       .  A
C854       Br870   1.922       .  S
C855        C856   1.401       .  A
C855        H859   1.084       .  S
C856        C860   1.478       .  S
C856        C857   1.405       .  A
C857        C858   1.397       .  A
C857       Br869   1.919       .  S
C858        H861   1.083       .  S
C860        C862   1.402       .  A
C860        C866   1.407       .  A
C862        C863   1.399       .  A
C862        H867   1.084       .  S
C863        C864   1.414       .  A
C863       Br871   1.921       .  S
C864        C865   1.406       .  A
C865        C866   1.399       .  A
C865        H868   1.083       .  S
C866       Br872   1.919       .  S
C873        C874   1.411       .  A
C873        C878   1.404       .  A
C874        C875   1.398       .  A
C874       Br890   1.920       .  S
C875        C876   1.402       .  A
C875        H879   1.084       .  S
C876        C880   1.477   1_556  S
C876        C877   1.408       .  A
C877        C878   1.399       .  A
C877       Br889   1.919       .  S
C878        H881   1.084       .  S
C880        C882   1.401       .  A
C880        C886   1.406       .  A
C882        C883   1.399       .  A
C882        H887   1.084       .  S
C883        C884   1.415       .  A
C883       Br891   1.921       .  S
C884        C885   1.406       .  A
C885        C886   1.397       .  A
C885        H888   1.083       .  S
C886       Br892   1.919       .  S
C893        C894   1.416       .  A
C893        C898   1.406       .  A
C894        C895   1.399       .  A
C894       Br910   1.922       .  S
C895        C896   1.399       .  A
C895        H899   1.084       .  S
C896        C900   1.473       .  S
C896        C897   1.404       .  A
C897        C898   1.397       .  A
C897       Br909   1.919       .  S
C898        H901   1.083       .  S
C900        C902   1.398       .  A
C900        C906   1.405       .  A
C902        C903   1.397       .  A
C902        H907   1.084       .  S
C903        C904   1.418       .  A
C903       Br911   1.922       .  S
C904        C905   1.408       .  A
C905        C906   1.399       .  A
C905        H908   1.083       .  S
C906       Br912   1.918       .  S
C913        C914   1.414       .  A
C913        C918   1.406       .  A
C914        C915   1.398       .  A
C914       Br930   1.921       .  S
C915        C916   1.400       .  A
C915        H919   1.084       .  S
C916        C920   1.476   1_655  S
C916        C917   1.407       .  A
C917        C918   1.399       .  A
C917       Br929   1.919       .  S
C918        H921   1.083       .  S
C920        C922   1.401       .  A
C920        C926   1.408       .  A
C922        C923   1.398       .  A
C922        H927   1.084       .  S
C923        C924   1.414       .  A
C923       Br931   1.922       .  S
C924        C925   1.404       .  A
C925        C926   1.399       .  A
C925        H928   1.083       .  S
C926       Br932   1.919       .  S
C933        C934   1.414       .  A
C933        C938   1.408       .  A
C934        C935   1.398       .  A
C934       Br950   1.921       .  S
C935        C936   1.400       .  A
C935        H939   1.084       .  S
C936        C940   1.476       .  S
C936        C937   1.406       .  A
C937        C938   1.400       .  A
C937       Br949   1.918       .  S
C938        H941   1.083       .  S
C940        C942   1.401       .  A
C940        C946   1.406       .  A
C942        C943   1.399       .  A
C942        H947   1.084       .  S
C943        C944   1.413       .  A
C943       Br951   1.921       .  S
C944        C945   1.406       .  A
C945        C946   1.399       .  A
C945        H948   1.083       .  S
C946       Br952   1.918       .  S
C953        C954   1.413       .  A
C953        C958   1.405       .  A
C954        C955   1.401       .  A
C954       Br970   1.920       .  S
C955        C956   1.402       .  A
C955        H959   1.084       .  S
C956        C960   1.476   1_455  S
C956        C957   1.405       .  A
C957        C958   1.398       .  A
C957       Br969   1.918       .  S
C958        H961   1.083       .  S
C960        C962   1.401       .  A
C960        C966   1.407       .  A
C962        C963   1.399       .  A
C962        H967   1.084       .  S
C963        C964   1.411       .  A
C963       Br971   1.919       .  S
C964        C965   1.405       .  A
C965        C966   1.400       .  A
C965        H968   1.084       .  S
C966       Br972   1.918       .  S
C973        C974   1.411       .  A
C973        C978   1.403       .  A
C974        C975   1.401       .  A
C974       Br990   1.920       .  S
C975        C976   1.404       .  A
C975        H979   1.083       .  S
C976        C980   1.477   1_554  S
C976        C977   1.407       .  A
C977        C978   1.395       .  A
C977       Br989   1.919       .  S
C978        H981   1.083       .  S
C980        C982   1.401       .  A
C980        C986   1.406       .  A
C982        C983   1.397       .  A
C982        H987   1.084       .  S
C983        C984   1.414       .  A
C983       Br991   1.921       .  S
C984        C985   1.407       .  A
C985        C986   1.400       .  A
C985        H988   1.083       .  S
C986       Br992   1.918       .  S
C993        C994   1.415       .  A
C993        C998   1.406       .  A
C994        C995   1.399       .  A
C994      Br1010   1.921       .  S
C995        C996   1.400       .  A
C995        H999   1.084       .  S
C996       C1000   1.474       .  S
C996        C997   1.405       .  A
C997        C998   1.398       .  A
C997      Br1009   1.918       .  S
C998       H1001   1.083       .  S
C1000      C1002   1.401       .  A
C1000      C1006   1.405       .  A
C1002      C1003   1.399       .  A
C1002      H1007   1.084       .  S
C1003      C1004   1.414       .  A
C1003     Br1011   1.921       .  S
C1004      C1005   1.406       .  A
C1005      C1006   1.397       .  A
C1005      H1008   1.083       .  S
C1006     Br1012   1.918       .  S
C1013      C1014   1.417       .  A
C1013      C1018   1.407       .  A
C1014      C1015   1.399       .  A
C1014     Br1030   1.921       .  S
C1015      C1016   1.400       .  A
C1015      H1019   1.084       .  S
C1016      C1020   1.474       .  S
C1016      C1017   1.405       .  A
C1017      C1018   1.397       .  A
C1017     Br1029   1.919       .  S
C1018      H1021   1.083       .  S
C1020      C1022   1.399       .  A
C1020      C1026   1.404       .  A
C1022      C1023   1.398       .  A
C1022      H1027   1.084       .  S
C1023      C1024   1.419       .  A
C1023     Br1031   1.922       .  S
C1024      C1025   1.410       .  A
C1025      C1026   1.397       .  A
C1025      H1028   1.083       .  S
C1026     Br1032   1.919       .  S
C1033      C1034   1.411       .  A
C1033      C1038   1.405       .  A
C1034      C1035   1.398       .  A
C1034     Br1050   1.920       .  S
C1035      C1036   1.402       .  A
C1035      H1039   1.084       .  S
C1036      C1040   1.479   1_554  S
C1036      C1037   1.408       .  A
C1037      C1038   1.400       .  A
C1037     Br1049   1.919       .  S
C1038      H1041   1.084       .  S
C1040      C1042   1.401       .  A
C1040      C1046   1.406       .  A
C1042      C1043   1.400       .  A
C1042      H1047   1.084       .  S
C1043      C1044   1.417       .  A
C1043     Br1051   1.919       .  S
C1044      C1045   1.407       .  A
C1045      C1046   1.398       .  A
C1045      H1048   1.083       .  S
C1046     Br1052   1.919       .  S
C1053      C1054   1.420       .  A
C1053      C1058   1.407       .  A
C1054      C1055   1.398       .  A
C1054     Br1070   1.923       .  S
C1055      C1056   1.400       .  A
C1055      H1059   1.084       .  S
C1056      C1060   1.477       .  S
C1056      C1057   1.406       .  A
C1057      C1058   1.397       .  A
C1057     Br1069   1.920       .  S
C1058      H1061   1.083       .  S
C1060      C1062   1.401       .  A
C1060      C1066   1.406       .  A
C1062      C1063   1.398       .  A
C1062      H1067   1.084       .  S
C1063      C1064   1.417       .  A
C1063     Br1071   1.922       .  S
C1064      C1065   1.407       .  A
C1065      C1066   1.396       .  A
C1065      H1068   1.083       .  S
C1066     Br1072   1.920       .  S
C1073      C1074   1.411       .  A
C1073      C1078   1.404       .  A
C1074      C1075   1.397       .  A
C1074     Br1090   1.921       .  S
C1075      C1076   1.402       .  A
C1075      H1079   1.084       .  S
C1076      C1080   1.476   1_565  S
C1076      C1077   1.408       .  A
C1077      C1078   1.398       .  A
C1077     Br1089   1.919       .  S
C1078      H1081   1.084       .  S
C1080      C1082   1.399       .  A
C1080      C1086   1.407       .  A
C1082      C1083   1.396       .  A
C1082      H1087   1.084       .  S
C1083      C1084   1.414       .  A
C1083     Br1091   1.919       .  S
C1084      C1085   1.407       .  A
C1085      C1086   1.400       .  A
C1085      H1088   1.083       .  S
C1086     Br1092   1.919       .  S
C1093      C1094   1.418       .  A
C1093      C1098   1.409       .  A
C1094      C1095   1.398       .  A
C1094     Br1110   1.923       .  S
C1095      C1096   1.399       .  A
C1095      H1099   1.084       .  S
C1096      C1100   1.477       .  S
C1096      C1097   1.406       .  A
C1097      C1098   1.399       .  A
C1097     Br1109   1.919       .  S
C1098      H1101   1.083       .  S
C1100      C1102   1.401       .  A
C1100      C1106   1.407       .  A
C1102      C1103   1.398       .  A
C1102      H1107   1.084       .  S
C1103      C1104   1.413       .  A
C1103     Br1111   1.921       .  S
C1104      C1105   1.406       .  A
C1105      C1106   1.398       .  A
C1105      H1108   1.084       .  S
C1106     Br1112   1.919       .  S
C1113      C1114   1.410       .  A
C1113      C1118   1.402       .  A
C1114      C1115   1.399       .  A
C1114     Br1130   1.920       .  S
C1115      C1116   1.402       .  A
C1115      H1119   1.084       .  S
C1116      C1120   1.475   1_565  S
C1116      C1117   1.409       .  A
C1117      C1118   1.397       .  A
C1117     Br1129   1.920       .  S
C1118      H1121   1.084       .  S
C1120      C1122   1.400       .  A
C1120      C1126   1.405       .  A
C1122      C1123   1.399       .  A
C1122      H1127   1.084       .  S
C1123      C1124   1.417       .  A
C1123     Br1131   1.921       .  S
C1124      C1125   1.409       .  A
C1125      C1126   1.396       .  A
C1125      H1128   1.083       .  S
C1126     Br1132   1.920       .  S
C1133      C1134   1.412       .  A
C1133      C1138   1.405       .  A
C1134      C1135   1.399       .  A
C1134     Br1150   1.920       .  S
C1135      C1136   1.401       .  A
C1135      H1139   1.084       .  S
C1136      C1140   1.477   1_554  S
C1136      C1137   1.407       .  A
C1137      C1138   1.401       .  A
C1137     Br1149   1.918       .  S
C1138      H1141   1.083       .  S
C1140      C1142   1.400       .  A
C1140      C1146   1.407       .  A
C1142      C1143   1.399       .  A
C1142      H1147   1.084       .  S
C1143      C1144   1.415       .  A
C1143     Br1151   1.921       .  S
C1144      C1145   1.406       .  A
C1145      C1146   1.401       .  A
C1145      H1148   1.083       .  S
C1146     Br1152   1.918       .  S
C1153      C1154   1.417       .  A
C1153      C1158   1.409       .  A
C1154      C1155   1.400       .  A
C1154     Br1170   1.920       .  S
C1155      C1156   1.399       .  A
C1155      H1159   1.084       .  S
C1156      C1160   1.473       .  S
C1156      C1157   1.404       .  A
C1157      C1158   1.397       .  A
C1157     Br1169   1.920       .  S
C1158      H1161   1.083       .  S
C1160      C1162   1.399       .  A
C1160      C1166   1.403       .  A
C1162      C1163   1.399       .  A
C1162      H1167   1.084       .  S
C1163      C1164   1.419       .  A
C1163     Br1171   1.922       .  S
C1164      C1165   1.409       .  A
C1165      C1166   1.396       .  A
C1165      H1168   1.083       .  S
C1166     Br1172   1.918       .  S
C1173      C1174   1.419       .  A
C1173      C1178   1.409       .  A
C1174      C1175   1.402       .  A
C1174     Br1190   1.922       .  S
C1175      C1176   1.400       .  A
C1175      H1179   1.084       .  S
C1176      C1180   1.475       .  S
C1176      C1177   1.403       .  A
C1177      C1178   1.396       .  A
C1177     Br1189   1.919       .  S
C1178      H1181   1.083       .  S
C1180      C1182   1.398       .  A
C1180      C1186   1.404       .  A
C1182      C1183   1.399       .  A
C1182      H1187   1.084       .  S
C1183      C1184   1.419       .  A
C1183     Br1191   1.922       .  S
C1184      C1185   1.410       .  A
C1185      C1186   1.400       .  A
C1185      H1188   1.083       .  S
C1186     Br1192   1.918       .  S
C1193      C1194   1.413       .  A
C1193      C1198   1.405       .  A
C1194      C1195   1.399       .  A
C1194     Br1210   1.920       .  S
C1195      C1196   1.401       .  A
C1195      H1199   1.084       .  S
C1196      C1200   1.476   1_556  S
C1196      C1197   1.406       .  A
C1197      C1198   1.400       .  A
C1197     Br1209   1.918       .  S
C1198      H1201   1.083       .  S
C1200      C1202   1.403       .  A
C1200      C1206   1.406       .  A
C1202      C1203   1.401       .  A
C1202      H1207   1.083       .  S
C1203      C1204   1.411       .  A
C1203     Br1211   1.920       .  S
C1204      C1205   1.404       .  A
C1205      C1206   1.397       .  A
C1205      H1208   1.084       .  S
C1206     Br1212   1.918       .  S
C1213      C1214   1.420       .  A
C1213      C1218   1.408       .  A
C1214      C1215   1.397       .  A
C1214     Br1230   1.923       .  S
C1215      C1216   1.397       .  A
C1215      H1219   1.084       .  S
C1216      C1220   1.473       .  S
C1216      C1217   1.405       .  A
C1217      C1218   1.399       .  A
C1217     Br1229   1.919       .  S
C1218      H1221   1.083       .  S
C1220      C1222   1.398       .  A
C1220      C1226   1.404       .  A
C1222      C1223   1.397       .  A
C1222      H1227   1.084       .  S
C1223      C1224   1.419       .  A
C1223     Br1231   1.923       .  S
C1224      C1225   1.410       .  A
C1225      C1226   1.398       .  A
C1225      H1228   1.083       .  S
C1226     Br1232   1.919       .  S
C1233      C1234   1.414       .  A
C1233      C1238   1.406       .  A
C1234      C1235   1.402       .  A
C1234     Br1250   1.918       .  S
C1235      C1236   1.403       .  A
C1235      H1239   1.084       .  S
C1236      C1240   1.479   1_655  S
C1236      C1237   1.406       .  A
C1237      C1238   1.396       .  A
C1237     Br1249   1.919       .  S
C1238      H1241   1.084       .  S
C1240      C1242   1.401       .  A
C1240      C1246   1.409       .  A
C1242      C1243   1.400       .  A
C1242      H1247   1.084       .  S
C1243      C1244   1.413       .  A
C1243     Br1251   1.920       .  S
C1244      C1245   1.404       .  A
C1245      C1246   1.399       .  A
C1245      H1248   1.083       .  S
C1246     Br1252   1.919       .  S
C1253      C1254   1.414       .  A
C1253      C1258   1.406       .  A
C1254      C1255   1.397       .  A
C1254     Br1270   1.922       .  S
C1255      C1256   1.399       .  A
C1255      H1259   1.084       .  S
C1256      C1260   1.472       .  S
C1256      C1257   1.405       .  A
C1257      C1258   1.399       .  A
C1257     Br1269   1.918       .  S
C1258      H1261   1.083       .  S
C1260      C1262   1.400       .  A
C1260      C1266   1.404       .  A
C1262      C1263   1.399       .  A
C1262      H1267   1.084       .  S
C1263      C1264   1.415       .  A
C1263     Br1271   1.921       .  S
C1264      C1265   1.406       .  A
C1265      C1266   1.397       .  A
C1265      H1268   1.083       .  S
C1266     Br1272   1.918       .  S
C1273      C1274   1.409       .  A
C1273      C1278   1.402       .  A
C1274      C1275   1.398       .  A
C1274     Br1290   1.920       .  S
C1275      C1276   1.403       .  A
C1275      H1279   1.084       .  S
C1276      C1280   1.476   1_455  S
C1276      C1277   1.409       .  A
C1277      C1278   1.397       .  A
C1277     Br1289   1.920       .  S
C1278      H1281   1.084       .  S
C1280      C1282   1.399       .  A
C1280      C1286   1.406       .  A
C1282      C1283   1.397       .  A
C1282      H1287   1.084       .  S
C1283      C1284   1.417       .  A
C1283     Br1291   1.922       .  S
C1284      C1285   1.408       .  A
C1285      C1286   1.398       .  A
C1285      H1288   1.083       .  S
C1286     Br1292   1.919       .  S
C1293      C1294   1.413       .  A
C1293      C1298   1.406       .  A
C1294      C1295   1.397       .  A
C1294     Br1310   1.919       .  S
C1295      C1296   1.401       .  A
C1295      H1299   1.084       .  S
C1296      C1300   1.478   1_556  S
C1296      C1297   1.408       .  A
C1297      C1298   1.399       .  A
C1297     Br1309   1.920       .  S
C1298      H1301   1.083       .  S
C1300      C1302   1.402       .  A
C1300      C1306   1.409       .  A
C1302      C1303   1.398       .  A
C1302      H1307   1.084       .  S
C1303      C1304   1.412       .  A
C1303     Br1311   1.920       .  S
C1304      C1305   1.404       .  A
C1305      C1306   1.397       .  A
C1305      H1308   1.084       .  S
C1306     Br1312   1.920       .  S
C1313      C1314   1.413       .  A
C1313      C1318   1.405       .  A
C1314      C1315   1.399       .  A
C1314     Br1330   1.921       .  S
C1315      C1316   1.401       .  A
C1315      H1319   1.084       .  S
C1316      C1320   1.474       .  S
C1316      C1317   1.406       .  A
C1317      C1318   1.397       .  A
C1317     Br1329   1.919       .  S
C1318      H1321   1.084       .  S
C1320      C1322   1.400       .  A
C1320      C1326   1.405       .  A
C1322      C1323   1.399       .  A
C1322      H1327   1.084       .  S
C1323      C1324   1.416       .  A
C1323     Br1331   1.921       .  S
C1324      C1325   1.407       .  A
C1325      C1326   1.397       .  A
C1325      H1328   1.083       .  S
C1326     Br1332   1.919       .  S
C1333      C1334   1.420       .  A
C1333      C1338   1.409       .  A
C1334      C1335   1.399       .  A
C1334     Br1350   1.922       .  S
C1335      C1336   1.398       .  A
C1335      H1339   1.084       .  S
C1336      C1340   1.472       .  S
C1336      C1337   1.403       .  A
C1337      C1338   1.397       .  A
C1337     Br1349   1.919       .  S
C1338      H1341   1.083       .  S
C1340      C1342   1.398       .  A
C1340      C1346   1.403       .  A
C1342      C1343   1.399       .  A
C1342      H1347   1.084       .  S
C1343      C1344   1.421       .  A
C1343     Br1351   1.923       .  S
C1344      C1345   1.409       .  A
C1345      C1346   1.397       .  A
C1345      H1348   1.083       .  S
C1346     Br1352   1.918       .  S
C1353      C1354   1.411       .  A
C1353      C1358   1.404       .  A
C1354      C1355   1.397       .  A
C1354     Br1370   1.921       .  S
C1355      C1356   1.399       .  A
C1355      H1359   1.084       .  S
C1356      C1360   1.471   1_556  S
C1356      C1357   1.406       .  A
C1357      C1358   1.398       .  A
C1357     Br1369   1.918       .  S
C1358      H1361   1.084       .  S
C1360      C1362   1.401       .  A
C1360      C1366   1.405       .  A
C1362      C1363   1.398       .  A
C1362      H1367   1.084       .  S
C1363      C1364   1.412       .  A
C1363     Br1371   1.920       .  S
C1364      C1365   1.405       .  A
C1365      C1366   1.397       .  A
C1365      H1368   1.084       .  S
C1366     Br1372   1.918       .  S
C1373      C1374   1.413       .  A
C1373      C1378   1.405       .  A
C1374      C1375   1.398       .  A
C1374     Br1390   1.920       .  S
C1375      C1376   1.400       .  A
C1375      H1379   1.084       .  S
C1376      C1380   1.475       .  S
C1376      C1377   1.406       .  A
C1377      C1378   1.398       .  A
C1377     Br1389   1.918       .  S
C1378      H1381   1.083       .  S
C1380      C1382   1.401       .  A
C1380      C1386   1.407       .  A
C1382      C1383   1.398       .  A
C1382      H1387   1.084       .  S
C1383      C1384   1.411       .  A
C1383     Br1391   1.920       .  S
C1384      C1385   1.405       .  A
C1385      C1386   1.399       .  A
C1385      H1388   1.084       .  S
C1386     Br1392   1.918       .  S
C1393      C1394   1.411       .  A
C1393      C1398   1.404       .  A
C1394      C1395   1.397       .  A
C1394     Br1410   1.921       .  S
C1395      C1396   1.400       .  A
C1395      H1399   1.084       .  S
C1396      C1400   1.474   1_545  S
C1396      C1397   1.407       .  A
C1397      C1398   1.400       .  A
C1397     Br1409   1.918       .  S
C1398      H1401   1.084       .  S
C1400      C1402   1.401       .  A
C1400      C1406   1.405       .  A
C1402      C1403   1.400       .  A
C1402      H1407   1.084       .  S
C1403      C1404   1.414       .  A
C1403     Br1411   1.921       .  S
C1404      C1405   1.405       .  A
C1405      C1406   1.396       .  A
C1405      H1408   1.083       .  S
C1406     Br1412   1.919       .  S
C1413      C1414   1.412       .  A
C1413      C1418   1.405       .  A
C1414      C1415   1.400       .  A
C1414     Br1430   1.920       .  S
C1415      C1416   1.401       .  A
C1415      H1419   1.084       .  S
C1416      C1420   1.473       .  S
C1416      C1417   1.404       .  A
C1417      C1418   1.397       .  A
C1417     Br1429   1.918       .  S
C1418      H1421   1.084       .  S
C1420      C1422   1.399       .  A
C1420      C1426   1.406       .  A
C1422      C1423   1.398       .  A
C1422      H1427   1.084       .  S
C1423      C1424   1.415       .  A
C1423     Br1431   1.921       .  S
C1424      C1425   1.406       .  A
C1425      C1426   1.399       .  A
C1425      H1428   1.083       .  S
C1426     Br1432   1.918       .  S
C1433      C1434   1.414       .  A
C1433      C1438   1.407       .  A
C1434      C1435   1.400       .  A
C1434     Br1450   1.920       .  S
C1435      C1436   1.402       .  A
C1435      H1439   1.084       .  S
C1436      C1440   1.480   1_545  S
C1436      C1437   1.406       .  A
C1437      C1438   1.399       .  A
C1437     Br1449   1.919       .  S
C1438      H1441   1.083       .  S
C1440      C1442   1.403       .  A
C1440      C1446   1.408       .  A
C1442      C1443   1.401       .  A
C1442      H1447   1.084       .  S
C1443      C1444   1.412       .  A
C1443     Br1451   1.920       .  S
C1444      C1445   1.404       .  A
C1445      C1446   1.399       .  A
C1445      H1448   1.084       .  S
C1446     Br1452   1.919       .  S
C1453      C1454   1.415       .  A
C1453      C1458   1.406       .  A
C1454      C1455   1.399       .  A
C1454     Br1470   1.921       .  S
C1455      C1456   1.401       .  A
C1455      H1459   1.084       .  S
C1456      C1460   1.477   1_554  S
C1456      C1457   1.407       .  A
C1457      C1458   1.398       .  A
C1457     Br1469   1.920       .  S
C1458      H1461   1.083       .  S
C1460      C1462   1.403       .  A
C1460      C1466   1.407       .  A
C1462      C1463   1.400       .  A
C1462      H1467   1.084       .  S
C1463      C1464   1.412       .  A
C1463     Br1471   1.921       .  S
C1464      C1465   1.404       .  A
C1465      C1466   1.397       .  A
C1465      H1468   1.084       .  S
C1466     Br1472   1.919       .  S
C1473      C1474   1.416       .  A
C1473      C1478   1.407       .  A
C1474      C1475   1.399       .  A
C1474     Br1490   1.921       .  S
C1475      C1476   1.401       .  A
C1475      H1479   1.084       .  S
C1476      C1480   1.477   1_545  S
C1476      C1477   1.406       .  A
C1477      C1478   1.396       .  A
C1477     Br1489   1.920       .  S
C1478      H1481   1.083       .  S
C1480      C1482   1.403       .  A
C1480      C1486   1.408       .  A
C1482      C1483   1.398       .  A
C1482      H1487   1.084       .  S
C1483      C1484   1.410       .  A
C1483     Br1491   1.920       .  S
C1484      C1485   1.404       .  A
C1485      C1486   1.398       .  A
C1485      H1488   1.084       .  S
C1486     Br1492   1.919       .  S
C1493      C1494   1.417       .  A
C1493      C1498   1.407       .  A
C1494      C1495   1.397       .  A
C1494     Br1510   1.922       .  S
C1495      C1496   1.401       .  A
C1495      H1499   1.084       .  S
C1496      C1500   1.478   1_455  S
C1496      C1497   1.407       .  A
C1497      C1498   1.397       .  A
C1497     Br1509   1.919       .  S
C1498      H1501   1.083       .  S
C1500      C1502   1.403       .  A
C1500      C1506   1.409       .  A
C1502      C1503   1.398       .  A
C1502      H1507   1.084       .  S
C1503      C1504   1.409       .  A
C1503     Br1511   1.920       .  S
C1504      C1505   1.403       .  A
C1505      C1506   1.397       .  A
C1505      H1508   1.084       .  S
C1506     Br1512   1.920       .  S
C1513      C1514   1.414       .  A
C1513      C1518   1.405       .  A
C1514      C1515   1.399       .  A
C1514     Br1530   1.921       .  S
C1515      C1516   1.401       .  A
C1515      H1519   1.084       .  S
C1516      C1520   1.477   1_655  S
C1516      C1517   1.407       .  A
C1517      C1518   1.398       .  A
C1517     Br1529   1.919       .  S
C1518      H1521   1.084       .  S
C1520      C1522   1.403       .  A
C1520      C1526   1.406       .  A
C1522      C1523   1.400       .  A
C1522      H1527   1.084       .  S
C1523      C1524   1.412       .  A
C1523     Br1531   1.920       .  S
C1524      C1525   1.406       .  A
C1525      C1526   1.398       .  A
C1525      H1528   1.084       .  S
C1526     Br1532   1.919       .  S
C1533      C1534   1.415       .  A
C1533      C1538   1.408       .  A
C1534      C1535   1.399       .  A
C1534     Br1550   1.920       .  S
C1535      C1536   1.400       .  A
C1535      H1539   1.084       .  S
C1536      C1540   1.475   1_545  S
C1536      C1537   1.405       .  A
C1537      C1538   1.399       .  A
C1537     Br1549   1.919       .  S
C1538      H1541   1.083       .  S
C1540      C1542   1.402       .  A
C1540      C1546   1.407       .  A
C1542      C1543   1.400       .  A
C1542      H1547   1.083       .  S
C1543      C1544   1.410       .  A
C1543     Br1551   1.920       .  S
C1544      C1545   1.403       .  A
C1545      C1546   1.398       .  A
C1545      H1548   1.084       .  S
C1546     Br1552   1.919       .  S
C1553      C1554   1.414       .  A
C1553      C1558   1.406       .  A
C1554      C1555   1.399       .  A
C1554     Br1570   1.921       .  S
C1555      C1556   1.400       .  A
C1555      H1559   1.084       .  S
C1556      C1560   1.475       .  S
C1556      C1557   1.406       .  A
C1557      C1558   1.399       .  A
C1557     Br1569   1.918       .  S
C1558      H1561   1.083       .  S
C1560      C1562   1.401       .  A
C1560      C1566   1.405       .  A
C1562      C1563   1.400       .  A
C1562      H1567   1.084       .  S
C1563      C1564   1.413       .  A
C1563     Br1571   1.920       .  S
C1564      C1565   1.405       .  A
C1565      C1566   1.398       .  A
C1565      H1568   1.084       .  S
C1566     Br1572   1.918       .  S
C1573      C1574   1.419       .  A
C1573      C1578   1.409       .  A
C1574      C1575   1.400       .  A
C1574     Br1590   1.922       .  S
C1575      C1576   1.400       .  A
C1575      H1579   1.084       .  S
C1576      C1580   1.476       .  S
C1576      C1577   1.404       .  A
C1577      C1578   1.397       .  A
C1577     Br1589   1.919       .  S
C1578      H1581   1.083       .  S
C1580      C1582   1.401       .  A
C1580      C1586   1.405       .  A
C1582      C1583   1.401       .  A
C1582      H1587   1.084       .  S
C1583      C1584   1.415       .  A
C1583     Br1591   1.920       .  S
C1584      C1585   1.407       .  A
C1585      C1586   1.396       .  A
C1585      H1588   1.083       .  S
C1586     Br1592   1.920       .  S
C1593      C1594   1.418       .  A
C1593      C1598   1.408       .  A
C1594      C1595   1.400       .  A
C1594     Br1610   1.921       .  S
C1595      C1596   1.402       .  A
C1595      H1599   1.084       .  S
C1596      C1600   1.479       .  S
C1596      C1597   1.406       .  A
C1597      C1598   1.396       .  A
C1597     Br1609   1.921       .  S
C1598      H1601   1.083       .  S
C1600      C1602   1.402       .  A
C1600      C1606   1.407       .  A
C1602      C1603   1.398       .  A
C1602      H1607   1.084       .  S
C1603      C1604   1.415       .  A
C1603     Br1611   1.922       .  S
C1604      C1605   1.407       .  A
C1605      C1606   1.396       .  A
C1605      H1608   1.083       .  S
C1606     Br1612   1.920       .  S
C1613      C1614   1.411       .  A
C1613      C1618   1.405       .  A
C1614      C1615   1.398       .  A
C1614     Br1630   1.921       .  S
C1615      C1616   1.401       .  A
C1615      H1619   1.084       .  S
C1616      C1620   1.474       .  S
C1616      C1617   1.406       .  A
C1617      C1618   1.399       .  A
C1617     Br1629   1.918       .  S
C1618      H1621   1.084       .  S
C1620      C1622   1.400       .  A
C1620      C1626   1.407       .  A
C1622      C1623   1.398       .  A
C1622      H1627   1.084       .  S
C1623      C1624   1.413       .  A
C1623     Br1631   1.921       .  S
C1624      C1625   1.405       .  A
C1625      C1626   1.400       .  A
C1625      H1628   1.084       .  S
C1626     Br1632   1.918       .  S
C1633      C1634   1.418       .  A
C1633      C1638   1.409       .  A
C1634      C1635   1.401       .  A
C1634     Br1650   1.921       .  S
C1635      C1636   1.400       .  A
C1635      H1639   1.084       .  S
C1636      C1640   1.475       .  S
C1636      C1637   1.403       .  A
C1637      C1638   1.396       .  A
C1637     Br1649   1.919       .  S
C1638      H1641   1.083       .  S
C1640      C1642   1.400       .  A
C1640      C1646   1.403       .  A
C1642      C1643   1.400       .  A
C1642      H1647   1.084       .  S
C1643      C1644   1.418       .  A
C1643     Br1651   1.921       .  S
C1644      C1645   1.411       .  A
C1645      C1646   1.397       .  A
C1645      H1648   1.083       .  S
C1646     Br1652   1.919       .  S
C1653      C1654   1.418       .  A
C1653      C1658   1.408       .  A
C1654      C1655   1.398       .  A
C1654     Br1670   1.920       .  S
C1655      C1656   1.398       .  A
C1655      H1659   1.084       .  S
C1656      C1660   1.473       .  S
C1656      C1657   1.404       .  A
C1657      C1658   1.399       .  A
C1657     Br1669   1.918       .  S
C1658      H1661   1.083       .  S
C1660      C1662   1.400       .  A
C1660      C1666   1.404       .  A
C1662      C1663   1.399       .  A
C1662      H1667   1.084       .  S
C1663      C1664   1.416       .  A
C1663     Br1671   1.921       .  S
C1664      C1665   1.408       .  A
C1665      C1666   1.398       .  A
C1665      H1668   1.083       .  S
C1666     Br1672   1.918       .  S
C1673      C1674   1.415       .  A
C1673      C1678   1.406       .  A
C1674      C1675   1.397       .  A
C1674     Br1690   1.922       .  S
C1675      C1676   1.400       .  A
C1675      H1679   1.084       .  S
C1676      C1680   1.475       .  S
C1676      C1677   1.407       .  A
C1677      C1678   1.399       .  A
C1677     Br1689   1.919       .  S
C1678      H1681   1.083       .  S
C1680      C1682   1.400       .  A
C1680      C1686   1.407       .  A
C1682      C1683   1.396       .  A
C1682      H1687   1.084       .  S
C1683      C1684   1.411       .  A
C1683     Br1691   1.916       .  S
C1684      C1685   1.406       .  A
C1685      C1686   1.400       .  A
C1685      H1688   1.084       .  S
C1686     Br1692   1.919       .  S
C1693      C1694   1.417       .  A
C1693      C1698   1.407       .  A
C1694      C1695   1.398       .  A
C1694     Br1710   1.922       .  S
C1695      C1696   1.399       .  A
C1695      H1699   1.084       .  S
C1696      C1700   1.473       .  S
C1696      C1697   1.405       .  A
C1697      C1698   1.397       .  A
C1697     Br1709   1.919       .  S
C1698      H1701   1.083       .  S
C1700      C1702   1.399       .  A
C1700      C1706   1.404       .  A
C1702      C1703   1.399       .  A
C1702      H1707   1.084       .  S
C1703      C1704   1.418       .  A
C1703     Br1711   1.922       .  S
C1704      C1705   1.409       .  A
C1705      C1706   1.397       .  A
C1705      H1708   1.083       .  S
C1706     Br1712   1.919       .  S
C1713      C1714   1.412       .  A
C1713      C1718   1.405       .  A
C1714      C1715   1.399       .  A
C1714     Br1730   1.920       .  S
C1715      C1716   1.402       .  A
C1715      H1719   1.084       .  S
C1716      C1720   1.474       .  S
C1716      C1717   1.405       .  A
C1717      C1718   1.397       .  A
C1717     Br1729   1.918       .  S
C1718      H1721   1.084       .  S
C1720      C1722   1.401       .  A
C1720      C1726   1.405       .  A
C1722      C1723   1.399       .  A
C1722      H1727   1.084       .  S
C1723      C1724   1.413       .  A
C1723     Br1731   1.920       .  S
C1724      C1725   1.406       .  A
C1725      C1726   1.397       .  A
C1725      H1728   1.083       .  S
C1726     Br1732   1.919       .  S
C1733      C1734   1.412       .  A
C1733      C1738   1.404       .  A
C1734      C1735   1.398       .  A
C1734     Br1750   1.920       .  S
C1735      C1736   1.401       .  A
C1735      H1739   1.084       .  S
C1736      C1740   1.477       .  S
C1736      C1737   1.407       .  A
C1737      C1738   1.398       .  A
C1737     Br1749   1.919       .  S
C1738      H1741   1.084       .  S
C1740      C1742   1.401       .  A
C1740      C1746   1.407       .  A
C1742      C1743   1.398       .  A
C1742      H1747   1.084       .  S
C1743      C1744   1.414       .  A
C1743     Br1751   1.921       .  S
C1744      C1745   1.406       .  A
C1745      C1746   1.399       .  A
C1745      H1748   1.083       .  S
C1746     Br1752   1.919       .  S
C1753      C1754   1.418       .  A
C1753      C1758   1.408       .  A
C1754      C1755   1.400       .  A
C1754     Br1770   1.922       .  S
C1755      C1756   1.400       .  A
C1755      H1759   1.084       .  S
C1756      C1760   1.475       .  S
C1756      C1757   1.404       .  A
C1757      C1758   1.397       .  A
C1757     Br1769   1.918       .  S
C1758      H1761   1.083       .  S
C1760      C1762   1.400       .  A
C1760      C1766   1.404       .  A
C1762      C1763   1.401       .  A
C1762      H1767   1.084       .  S
C1763      C1764   1.417       .  A
C1763     Br1771   1.921       .  S
C1764      C1765   1.407       .  A
C1765      C1766   1.397       .  A
C1765      H1768   1.083       .  S
C1766     Br1772   1.919       .  S
C1773      C1774   1.417       .  A
C1773      C1778   1.409       .  A
C1774      C1775   1.397       .  A
C1774     Br1790   1.922       .  S
C1775      C1776   1.399       .  A
C1775      H1779   1.084       .  S
C1776      C1780   1.474       .  S
C1776      C1777   1.404       .  A
C1777      C1778   1.399       .  A
C1777     Br1789   1.918       .  S
C1778      H1781   1.083       .  S
C1780      C1782   1.400       .  A
C1780      C1786   1.403       .  A
C1782      C1783   1.400       .  A
C1782      H1787   1.084       .  S
C1783      C1784   1.419       .  A
C1783     Br1791   1.921       .  S
C1784      C1785   1.410       .  A
C1785      C1786   1.396       .  A
C1785      H1788   1.083       .  S
C1786     Br1792   1.919       .  S
C1793      C1794   1.415       .  A
C1793      C1798   1.406       .  A
C1794      C1795   1.396       .  A
C1794     Br1810   1.922       .  S
C1795      C1796   1.399       .  A
C1795      H1799   1.084       .  S
C1796      C1800   1.470       .  S
C1796      C1797   1.405       .  A
C1797      C1798   1.397       .  A
C1797     Br1809   1.918       .  S
C1798      H1801   1.083       .  S
C1800      C1802   1.398       .  A
C1800      C1806   1.404       .  A
C1802      C1803   1.397       .  A
C1802      H1807   1.084       .  S
C1803      C1804   1.418       .  A
C1803     Br1811   1.922       .  S
C1804      C1805   1.408       .  A
C1805      C1806   1.396       .  A
C1805      H1808   1.083       .  S
C1806     Br1812   1.919       .  S
C1813      C1814   1.414       .  A
C1813      C1818   1.405       .  A
C1814      C1815   1.401       .  A
C1814     Br1830   1.920       .  S
C1815      C1816   1.402       .  A
C1815      H1819   1.083       .  S
C1816      C1820   1.478       .  S
C1816      C1817   1.406       .  A
C1817      C1818   1.398       .  A
C1817     Br1829   1.919       .  S
C1818      H1821   1.084       .  S
C1820      C1822   1.401       .  A
C1820      C1826   1.407       .  A
C1822      C1823   1.398       .  A
C1822      H1827   1.084       .  S
C1823      C1824   1.413       .  A
C1823     Br1831   1.921       .  S
C1824      C1825   1.405       .  A
C1825      C1826   1.401       .  A
C1825      H1828   1.083       .  S
C1826     Br1832   1.918       .  S
C1833      C1834   1.419       .  A
C1833      C1838   1.408       .  A
C1834      C1835   1.399       .  A
C1834     Br1850   1.922       .  S
C1835      C1836   1.400       .  A
C1835      H1839   1.085       .  S
C1836      C1840   1.476       .  S
C1836      C1837   1.405       .  A
C1837      C1838   1.397       .  A
C1837     Br1849   1.919       .  S
C1838      H1841   1.084       .  S
C1840      C1842   1.400       .  A
C1840      C1846   1.407       .  A
C1842      C1843   1.397       .  A
C1842      H1847   1.087       .  S
C1843      C1844   1.415       .  A
C1843     Br1851   1.921       .  S
C1844      C1845   1.405       .  A
C1845      C1846   1.398       .  A
C1845      H1848   1.089       .  S
C1846     Br1852   1.918       .  S
C1853      C1854   1.420       .  A
C1853      C1858   1.410       .  A
C1854      C1855   1.399       .  A
C1854     Br1870   1.922       .  S
C1855      C1856   1.398       .  A
C1855      H1859   1.084       .  S
C1856      C1860   1.475       .  S
C1856      C1857   1.403       .  A
C1857      C1858   1.399       .  A
C1857     Br1869   1.918       .  S
C1858      H1861   1.083       .  S
C1860      C1862   1.398       .  A
C1860      C1866   1.403       .  A
C1862      C1863   1.399       .  A
C1862      H1867   1.084       .  S
C1863      C1864   1.420       .  A
C1863     Br1871   1.922       .  S
C1864      C1865   1.410       .  A
C1865      C1866   1.398       .  A
C1865      H1868   1.083       .  S
C1866     Br1872   1.918       .  S
C1873      C1874   1.412       .  A
C1873      C1878   1.404       .  A
C1874      C1875   1.399       .  A
C1874     Br1890   1.921       .  S
C1875      C1876   1.402       .  A
C1875      H1879   1.084       .  S
C1876      C1880   1.475       .  S
C1876      C1877   1.407       .  A
C1877      C1878   1.397       .  A
C1877     Br1889   1.919       .  S
C1878      H1881   1.084       .  S
C1880      C1882   1.399       .  A
C1880      C1886   1.407       .  A
C1882      C1883   1.397       .  A
C1882      H1887   1.084       .  S
C1883      C1884   1.414       .  A
C1883     Br1891   1.921       .  S
C1884      C1885   1.406       .  A
C1885      C1886   1.399       .  A
C1885      H1888   1.083       .  S
C1886     Br1892   1.919       .  S
C1893      C1894   1.416       .  A
C1893      C1898   1.406       .  A
C1894      C1895   1.400       .  A
C1894     Br1910   1.921       .  S
C1895      C1896   1.401       .  A
C1895      H1899   1.084       .  S
C1896      C1900   1.473       .  S
C1896      C1897   1.404       .  A
C1897      C1898   1.395       .  A
C1897     Br1909   1.920       .  S
C1898      H1901   1.083       .  S
C1900      C1902   1.402       .  A
C1900      C1906   1.405       .  A
C1902      C1903   1.399       .  A
C1902      H1907   1.084       .  S
C1903      C1904   1.411       .  A
C1903     Br1911   1.920       .  S
C1904      C1905   1.405       .  A
C1905      C1906   1.396       .  A
C1905      H1908   1.084       .  S
C1906     Br1912   1.919       .  S
C1913      C1914   1.415       .  A
C1913      C1918   1.405       .  A
C1914      C1915   1.401       .  A
C1914     Br1930   1.920       .  S
C1915      C1916   1.401       .  A
C1915      H1919   1.084       .  S
C1916      C1920   1.473       .  S
C1916      C1917   1.405       .  A
C1917      C1918   1.396       .  A
C1917     Br1929   1.919       .  S
C1918      H1921   1.083       .  S
C1920      C1922   1.401       .  A
C1920      C1926   1.407       .  A
C1922      C1923   1.398       .  A
C1922      H1927   1.084       .  S
C1923      C1924   1.409       .  A
C1923     Br1931   1.920       .  S
C1924      C1925   1.403       .  A
C1925      C1926   1.399       .  A
C1925      H1928   1.084       .  S
C1926     Br1932   1.918       .  S
C1933      C1934   1.414       .  A
C1933      C1938   1.406       .  A
C1934      C1935   1.399       .  A
C1934     Br1950   1.921       .  S
C1935      C1936   1.400       .  A
C1935      H1939   1.084       .  S
C1936      C1940   1.475       .  S
C1936      C1937   1.406       .  A
C1937      C1938   1.399       .  A
C1937     Br1949   1.919       .  S
C1938      H1941   1.083       .  S
C1940      C1942   1.402       .  A
C1940      C1946   1.406       .  A
C1942      C1943   1.400       .  A
C1942      H1947   1.083       .  S
C1943      C1944   1.411       .  A
C1943     Br1951   1.920       .  S
C1944      C1945   1.404       .  A
C1945      C1946   1.398       .  A
C1945      H1948   1.084       .  S
C1946     Br1952   1.918       .  S
C1953      C1954   1.417       .  A
C1953      C1958   1.408       .  A
C1954      C1955   1.399       .  A
C1954     Br1970   1.922       .  S
C1955      C1956   1.399       .  A
C1955      H1959   1.084       .  S
C1956      C1960   1.475       .  S
C1956      C1957   1.404       .  A
C1957      C1958   1.398       .  A
C1957     Br1969   1.918       .  S
C1958      H1961   1.083       .  S
C1960      C1962   1.398       .  A
C1960      C1966   1.404       .  A
C1962      C1963   1.398       .  A
C1962      H1967   1.084       .  S
C1963      C1964   1.419       .  A
C1963     Br1971   1.922       .  S
C1964      C1965   1.410       .  A
C1965      C1966   1.400       .  A
C1965      H1968   1.083       .  S
C1966     Br1972   1.918       .  S
C1973      C1974   1.414       .  A
C1973      C1978   1.405       .  A
C1974      C1975   1.396       .  A
C1974     Br1990   1.921       .  S
C1975      C1976   1.400       .  A
C1975      H1979   1.084       .  S
C1976      C1980   1.472       .  S
C1976      C1977   1.406       .  A
C1977      C1978   1.396       .  A
C1977     Br1989   1.919       .  S
C1978      H1981   1.084       .  S
C1980      C1982   1.398       .  A
C1980      C1986   1.405       .  A
C1982      C1983   1.396       .  A
C1982      H1987   1.084       .  S
C1983      C1984   1.418       .  A
C1983     Br1991   1.922       .  S
C1984      C1985   1.407       .  A
C1985      C1986   1.396       .  A
C1985      H1988   1.083       .  S
C1986     Br1992   1.920       .  S
C1993      C1994   1.409       .  A
C1993      C1998   1.404       .  A
C1994      C1995   1.398       .  A
C1994     Br2010   1.920       .  S
C1995      C1996   1.402       .  A
C1995      H1999   1.084       .  S
C1996      C2000   1.477       .  S
C1996      C1997   1.408       .  A
C1997      C1998   1.400       .  A
C1997     Br2009   1.918       .  S
C1998      H2001   1.084       .  S
C2000      C2002   1.401       .  A
C2000      C2006   1.406       .  A
C2002      C2003   1.400       .  A
C2002      H2007   1.084       .  S
C2003      C2004   1.413       .  A
C2003     Br2011   1.920       .  S
C2004      C2005   1.406       .  A
C2005      C2006   1.399       .  A
C2005      H2008   1.084       .  S
C2006     Br2012   1.919       .  S
C2013      C2014   1.412       .  A
C2013      C2018   1.404       .  A
C2014      C2015   1.398       .  A
C2014     Br2030   1.920       .  S
C2015      C2016   1.401       .  A
C2015      H2019   1.084       .  S
C2016      C2020   1.474       .  S
C2016      C2017   1.407       .  A
C2017      C2018   1.397       .  A
C2017     Br2029   1.919       .  S
C2018      H2021   1.084       .  S
C2020      C2022   1.400       .  A
C2020      C2026   1.407       .  A
C2022      C2023   1.398       .  A
C2022      H2027   1.084       .  S
C2023      C2024   1.414       .  A
C2023     Br2031   1.920       .  S
C2024      C2025   1.405       .  A
C2025      C2026   1.397       .  A
C2025      H2028   1.083       .  S
C2026     Br2032   1.919       .  S
C2033      C2034   1.419       .  A
C2033      C2038   1.409       .  A
C2034      C2035   1.399       .  A
C2034     Br2050   1.922       .  S
C2035      C2036   1.399       .  A
C2035      H2039   1.084       .  S
C2036      C2040   1.474       .  S
C2036      C2037   1.404       .  A
C2037      C2038   1.397       .  A
C2037     Br2049   1.919       .  S
C2038      H2041   1.083       .  S
C2040      C2042   1.400       .  A
C2040      C2046   1.404       .  A
C2042      C2043   1.400       .  A
C2042      H2047   1.084       .  S
C2043      C2044   1.418       .  A
C2043     Br2051   1.921       .  S
C2044      C2045   1.409       .  A
C2045      C2046   1.396       .  A
C2045      H2048   1.083       .  S
C2046     Br2052   1.919       .  S
C2053      C2054   1.412       .  A
C2053      C2058   1.404       .  A
C2054      C2055   1.400       .  A
C2054     Br2070   1.920       .  S
C2055      C2056   1.402       .  A
C2055      H2059   1.084       .  S
C2056      C2060   1.478       .  S
C2056      C2057   1.407       .  A
C2057      C2058   1.398       .  A
C2057     Br2069   1.919       .  S
C2058      H2061   1.084       .  S
C2060      C2062   1.400       .  A
C2060      C2066   1.406       .  A
C2062      C2063   1.398       .  A
C2062      H2067   1.084       .  S
C2063      C2064   1.416       .  A
C2063     Br2071   1.922       .  S
C2064      C2065   1.407       .  A
C2065      C2066   1.400       .  A
C2065      H2068   1.083       .  S
C2066     Br2072   1.918       .  S
C2073      C2074   1.411       .  A
C2073      C2078   1.403       .  A
C2074      C2075   1.399       .  A
C2074     Br2090   1.920       .  S
C2075      C2076   1.403       .  A
C2075      H2079   1.084       .  S
C2076      C2080   1.479       .  S
C2076      C2077   1.409       .  A
C2077      C2078   1.397       .  A
C2077     Br2089   1.920       .  S
C2078      H2081   1.084       .  S
C2080      C2082   1.401       .  A
C2080      C2086   1.407       .  A
C2082      C2083   1.399       .  A
C2082      H2087   1.084       .  S
C2083      C2084   1.416       .  A
C2083     Br2091   1.921       .  S
C2084      C2085   1.407       .  A
C2085      C2086   1.396       .  A
C2085      H2088   1.083       .  S
C2086     Br2092   1.920       .  S
C2093      C2094   1.415       .  A
C2093      C2098   1.408       .  A
C2094      C2095   1.398       .  A
C2094     Br2110   1.921       .  S
C2095      C2096   1.399       .  A
C2095      H2099   1.084       .  S
C2096      C2100   1.472       .  S
C2096      C2097   1.404       .  A
C2097      C2098   1.397       .  A
C2097     Br2109   1.919       .  S
C2098      H2101   1.083       .  S
C2100      C2102   1.399       .  A
C2100      C2106   1.404       .  A
C2102      C2103   1.397       .  A
C2102      H2107   1.084       .  S
C2103      C2104   1.415       .  A
C2103     Br2111   1.921       .  S
C2104      C2105   1.408       .  A
C2105      C2106   1.398       .  A
C2105      H2108   1.083       .  S
C2106     Br2112   1.918       .  S
C2113      C2114   1.413       .  A
C2113      C2118   1.405       .  A
C2114      C2115   1.400       .  A
C2114     Br2130   1.921       .  S
C2115      C2116   1.403       .  A
C2115      H2119   1.084       .  S
C2116      C2120   1.481       .  S
C2116      C2117   1.408       .  A
C2117      C2118   1.399       .  A
C2117     Br2129   1.919       .  S
C2118      H2121   1.083       .  S
C2120      C2122   1.403       .  A
C2120      C2126   1.407       .  A
C2122      C2123   1.400       .  A
C2122      H2127   1.084       .  S
C2123      C2124   1.414       .  A
C2123     Br2131   1.920       .  S
C2124      C2125   1.406       .  A
C2125      C2126   1.398       .  A
C2125      H2128   1.083       .  S
C2126     Br2132   1.919       .  S
C2133      C2134   1.411       .  A
C2133      C2138   1.404       .  A
C2134      C2135   1.398       .  A
C2134     Br2150   1.920       .  S
C2135      C2136   1.402       .  A
C2135      H2139   1.084       .  S
C2136      C2140   1.476       .  S
C2136      C2137   1.407       .  A
C2137      C2138   1.398       .  A
C2137     Br2149   1.919       .  S
C2138      H2141   1.084       .  S
C2140      C2142   1.402       .  A
C2140      C2146   1.405       .  A
C2142      C2143   1.399       .  A
C2142      H2147   1.084       .  S
C2143      C2144   1.414       .  A
C2143     Br2151   1.919       .  S
C2144      C2145   1.406       .  A
C2145      C2146   1.396       .  A
C2145      H2148   1.084       .  S
C2146     Br2152   1.919       .  S
C2153      C2154   1.418       .  A
C2153      C2158   1.409       .  A
C2154      C2155   1.402       .  A
C2154     Br2170   1.921       .  S
C2155      C2156   1.400       .  A
C2155      H2159   1.084       .  S
C2156      C2160   1.473       .  S
C2156      C2157   1.402       .  A
C2157      C2158   1.395       .  A
C2157     Br2169   1.919       .  S
C2158      H2161   1.083       .  S
C2160      C2162   1.400       .  A
C2160      C2166   1.403       .  A
C2162      C2163   1.400       .  A
C2162      H2167   1.084       .  S
C2163      C2164   1.418       .  A
C2163     Br2171   1.922       .  S
C2164      C2165   1.408       .  A
C2165      C2166   1.396       .  A
C2165      H2168   1.083       .  S
C2166     Br2172   1.918       .  S
C2173      C2174   1.418       .  A
C2173      C2178   1.409       .  A
C2174      C2175   1.399       .  A
C2174     Br2190   1.921       .  S
C2175      C2176   1.400       .  A
C2175      H2179   1.084       .  S
C2176      C2180   1.479       .  S
C2176      C2177   1.406       .  A
C2177      C2178   1.399       .  A
C2177     Br2189   1.919       .  S
C2178      H2181   1.083       .  S
C2180      C2182   1.402       .  A
C2180      C2186   1.407       .  A
C2182      C2183   1.399       .  A
C2182      H2187   1.084       .  S
C2183      C2184   1.414       .  A
C2183     Br2191   1.921       .  S
C2184      C2185   1.406       .  A
C2185      C2186   1.399       .  A
C2185      H2188   1.083       .  S
C2186     Br2192   1.919       .  S
C2193      C2194   1.419       .  A
C2193      C2198   1.409       .  A
C2194      C2195   1.399       .  A
C2194     Br2210   1.922       .  S
C2195      C2196   1.399       .  A
C2195      H2199   1.084       .  S
C2196      C2200   1.475       .  S
C2196      C2197   1.405       .  A
C2197      C2198   1.397       .  A
C2197     Br2209   1.919       .  S
C2198      H2201   1.083       .  S
C2200      C2202   1.400       .  A
C2200      C2206   1.406       .  A
C2202      C2203   1.397       .  A
C2202      H2207   1.084       .  S
C2203      C2204   1.415       .  A
C2203     Br2211   1.921       .  S
C2204      C2205   1.407       .  A
C2205      C2206   1.399       .  A
C2205      H2208   1.083       .  S
C2206     Br2212   1.919       .  S
C2213      C2214   1.411       .  A
C2213      C2218   1.403       .  A
C2214      C2215   1.400       .  A
C2214     Br2230   1.920       .  S
C2215      C2216   1.401       .  A
C2215      H2219   1.084       .  S
C2216      C2220   1.478       .  S
C2216      C2217   1.408       .  A
C2217      C2218   1.399       .  A
C2217     Br2229   1.919       .  S
C2218      H2221   1.084       .  S
C2220      C2222   1.402       .  A
C2220      C2226   1.405       .  A
C2222      C2223   1.402       .  A
C2222      H2227   1.084       .  S
C2223      C2224   1.415       .  A
C2223     Br2231   1.920       .  S
C2224      C2225   1.406       .  A
C2225      C2226   1.397       .  A
C2225      H2228   1.084       .  S
C2226     Br2232   1.919       .  S
C2233      C2234   1.417       .  A
C2233      C2238   1.406       .  A
C2234      C2235   1.399       .  A
C2234     Br2250   1.922       .  S
C2235      C2236   1.400       .  A
C2235      H2239   1.084       .  S
C2236      C2240   1.478       .  S
C2236      C2237   1.407       .  A
C2237      C2238   1.401       .  A
C2237     Br2249   1.918       .  S
C2238      H2241   1.083       .  S
C2240      C2242   1.403       .  A
C2240      C2246   1.407       .  A
C2242      C2243   1.400       .  A
C2242      H2247   1.084       .  S
C2243      C2244   1.411       .  A
C2243     Br2251   1.919       .  S
C2244      C2245   1.404       .  A
C2245      C2246   1.399       .  A
C2245      H2248   1.084       .  S
C2246     Br2252   1.918       .  S
C2253      C2254   1.417       .  A
C2253      C2258   1.409       .  A
C2254      C2255   1.401       .  A
C2254     Br2270   1.921       .  S
C2255      C2256   1.400       .  A
C2255      H2259   1.084       .  S
C2256      C2260   1.475       .  S
C2256      C2257   1.403       .  A
C2257      C2258   1.397       .  A
C2257     Br2269   1.919       .  S
C2258      H2261   1.083       .  S
C2260      C2262   1.399       .  A
C2260      C2266   1.403       .  A
C2262      C2263   1.399       .  A
C2262      H2267   1.084       .  S
C2263      C2264   1.419       .  A
C2263     Br2271   1.922       .  S
C2264      C2265   1.410       .  A
C2265      C2266   1.399       .  A
C2265      H2268   1.083       .  S
C2266     Br2272   1.918       .  S
C2273      C2274   1.411       .  A
C2273      C2278   1.406       .  A
C2274      C2275   1.400       .  A
C2274     Br2290   1.920       .  S
C2275      C2276   1.403       .  A
C2275      H2279   1.083       .  S
C2276      C2280   1.479       .  S
C2276      C2277   1.407       .  A
C2277      C2278   1.399       .  A
C2277     Br2289   1.919       .  S
C2278      H2281   1.084       .  S
C2280      C2282   1.402       .  A
C2280      C2286   1.407       .  A
C2282      C2283   1.401       .  A
C2282      H2287   1.084       .  S
C2283      C2284   1.414       .  A
C2283     Br2291   1.921       .  S
C2284      C2285   1.405       .  A
C2285      C2286   1.398       .  A
C2285      H2288   1.083       .  S
C2286     Br2292   1.919       .  S
C2293      C2294   1.417       .  A
C2293      C2298   1.406       .  A
C2294      C2295   1.399       .  A
C2294     Br2310   1.922       .  S
C2295      C2296   1.402       .  A
C2295      H2299   1.084       .  S
C2296      C2300   1.480       .  S
C2296      C2297   1.408       .  A
C2297      C2298   1.396       .  A
C2297     Br2309   1.921       .  S
C2298      H2301   1.083       .  S
C2300      C2302   1.401       .  A
C2300      C2306   1.408       .  A
C2302      C2303   1.398       .  A
C2302      H2307   1.084       .  S
C2303      C2304   1.417       .  A
C2303     Br2311   1.922       .  S
C2304      C2305   1.406       .  A
C2305      C2306   1.397       .  A
C2305      H2308   1.083       .  S
C2306     Br2312   1.920       .  S
C2313      C2314   1.412       .  A
C2313      C2318   1.406       .  A
C2314      C2315   1.396       .  A
C2314     Br2330   1.916       .  S
C2315      C2316   1.399       .  A
C2315      H2319   1.084       .  S
C2316      C2320   1.474       .  S
C2316      C2317   1.407       .  A
C2317      C2318   1.399       .  A
C2317     Br2329   1.919       .  S
C2318      H2321   1.083       .  S
C2320      C2322   1.402       .  A
C2320      C2326   1.406       .  A
C2322      C2323   1.399       .  A
C2322      H2327   1.084       .  S
C2323      C2324   1.413       .  A
C2323     Br2331   1.921       .  S
C2324      C2325   1.404       .  A
C2325      C2326   1.396       .  A
C2325      H2328   1.084       .  S
C2326     Br2332   1.919       .  S
C2333      C2334   1.413       .  A
C2333      C2338   1.406       .  A
C2334      C2335   1.399       .  A
C2334     Br2350   1.917       .  S
C2335      C2336   1.402       .  A
C2335      H2339   1.084       .  S
C2336      C2340   1.479       .  S
C2336      C2337   1.406       .  A
C2337      C2338   1.397       .  A
C2337     Br2349   1.919       .  S
C2338      H2341   1.084       .  S
C2340      C2342   1.403       .  A
C2340      C2346   1.407       .  A
C2342      C2343   1.398       .  A
C2342      H2347   1.084       .  S
C2343      C2344   1.412       .  A
C2343     Br2351   1.920       .  S
C2344      C2345   1.407       .  A
C2345      C2346   1.398       .  A
C2345      H2348   1.083       .  S
C2346     Br2352   1.919       .  S
C2353      C2354   1.419       .  A
C2353      C2358   1.409       .  A
C2354      C2355   1.399       .  A
C2354     Br2370   1.922       .  S
C2355      C2356   1.399       .  A
C2355      H2359   1.084       .  S
C2356      C2360   1.475       .  S
C2356      C2357   1.404       .  A
C2357      C2358   1.398       .  A
C2357     Br2369   1.919       .  S
C2358      H2361   1.083       .  S
C2360      C2362   1.400       .  A
C2360      C2366   1.405       .  A
C2362      C2363   1.399       .  A
C2362      H2367   1.084       .  S
C2363      C2364   1.416       .  A
C2363     Br2371   1.921       .  S
C2364      C2365   1.408       .  A
C2365      C2366   1.398       .  A
C2365      H2368   1.083       .  S
C2366     Br2372   1.919       .  S
C2373      C2374   1.420       .  A
C2373      C2378   1.409       .  A
C2374      C2375   1.401       .  A
C2374     Br2390   1.922       .  S
C2375      C2376   1.399       .  A
C2375      H2379   1.084       .  S
C2376      C2380   1.474       .  S
C2376      C2377   1.403       .  A
C2377      C2378   1.396       .  A
C2377     Br2389   1.919       .  S
C2378      H2381   1.083       .  S
C2380      C2382   1.398       .  A
C2380      C2386   1.404       .  A
C2382      C2383   1.398       .  A
C2382      H2387   1.084       .  S
C2383      C2384   1.420       .  A
C2383     Br2391   1.923       .  S
C2384      C2385   1.410       .  A
C2385      C2386   1.399       .  A
C2385      H2388   1.083       .  S
C2386     Br2392   1.918       .  S
C2393      C2394   1.413       .  A
C2393      C2398   1.406       .  A
C2394      C2395   1.399       .  A
C2394     Br2410   1.920       .  S
C2395      C2396   1.401       .  A
C2395      H2399   1.084       .  S
C2396      C2400   1.475       .  S
C2396      C2397   1.406       .  A
C2397      C2398   1.398       .  A
C2397     Br2409   1.919       .  S
C2398      H2401   1.084       .  S
C2400      C2402   1.400       .  A
C2400      C2406   1.404       .  A
C2402      C2403   1.399       .  A
C2402      H2407   1.084       .  S
C2403      C2404   1.417       .  A
C2403     Br2411   1.921       .  S
C2404      C2405   1.409       .  A
C2405      C2406   1.398       .  A
C2405      H2408   1.083       .  S
C2406     Br2412   1.919       .  S
C2413      C2414   1.413       .  A
C2413      C2418   1.405       .  A
C2414      C2415   1.400       .  A
C2414     Br2430   1.921       .  S
C2415      C2416   1.401       .  A
C2415      H2419   1.084       .  S
C2416      C2420   1.476       .  S
C2416      C2417   1.406       .  A
C2417      C2418   1.398       .  A
C2417     Br2429   1.919       .  S
C2418      H2421   1.083       .  S
C2420      C2422   1.400       .  A
C2420      C2426   1.406       .  A
C2422      C2423   1.400       .  A
C2422      H2427   1.084       .  S
C2423      C2424   1.416       .  A
C2423     Br2431   1.920       .  S
C2424      C2425   1.407       .  A
C2425      C2426   1.398       .  A
C2425      H2428   1.083       .  S
C2426     Br2432   1.919       .  S
C2433      C2434   1.417       .  A
C2433      C2438   1.408       .  A
C2434      C2435   1.399       .  A
C2434     Br2450   1.921       .  S
C2435      C2436   1.401       .  A
C2435      H2439   1.084       .  S
C2436      C2440   1.478   1_565  S
C2436      C2437   1.405       .  A
C2437      C2438   1.397       .  A
C2437     Br2449   1.920       .  S
C2438      H2441   1.083       .  S
C2440      C2442   1.404       .  A
C2440      C2446   1.408       .  A
C2442      C2443   1.399       .  A
C2442      H2447   1.084       .  S
C2443      C2444   1.410       .  A
C2443     Br2451   1.920       .  S
C2444      C2445   1.402       .  A
C2445      C2446   1.396       .  A
C2445      H2448   1.084       .  S
C2446     Br2452   1.919       .  S
C2453      C2454   1.413       .  A
C2453      C2458   1.405       .  A
C2454      C2455   1.398       .  A
C2454     Br2470   1.921       .  S
C2455      C2456   1.400       .  A
C2455      H2459   1.084       .  S
C2456      C2460   1.473       .  S
C2456      C2457   1.406       .  A
C2457      C2458   1.398       .  A
C2457     Br2469   1.918       .  S
C2458      H2461   1.084       .  S
C2460      C2462   1.399       .  A
C2460      C2466   1.405       .  A
C2462      C2463   1.398       .  A
C2462      H2467   1.084       .  S
C2463      C2464   1.416       .  A
C2463     Br2471   1.922       .  S
C2464      C2465   1.407       .  A
C2465      C2466   1.399       .  A
C2465      H2468   1.083       .  S
C2466     Br2472   1.918       .  S
C2473      C2474   1.419       .  A
C2473      C2478   1.410       .  A
C2474      C2475   1.399       .  A
C2474     Br2490   1.922       .  S
C2475      C2476   1.398       .  A
C2475      H2479   1.084       .  S
C2476      C2480   1.472       .  S
C2476      C2477   1.403       .  A
C2477      C2478   1.396       .  A
C2477     Br2489   1.919       .  S
C2478      H2481   1.083       .  S
C2480      C2482   1.398       .  A
C2480      C2486   1.403       .  A
C2482      C2483   1.398       .  A
C2482      H2487   1.084       .  S
C2483      C2484   1.419       .  A
C2483     Br2491   1.922       .  S
C2484      C2485   1.410       .  A
C2485      C2486   1.398       .  A
C2485      H2488   1.083       .  S
C2486     Br2492   1.918       .  S
C2493      C2494   1.417       .  A
C2493      C2498   1.408       .  A
C2494      C2495   1.398       .  A
C2494     Br2510   1.921       .  S
C2495      C2496   1.400       .  A
C2495      H2499   1.084       .  S
C2496      C2500   1.477   1_455  S
C2496      C2497   1.405       .  A
C2497      C2498   1.398       .  A
C2497     Br2509   1.919       .  S
C2498      H2501   1.083       .  S
C2500      C2502   1.403       .  A
C2500      C2506   1.408       .  A
C2502      C2503   1.399       .  A
C2502      H2507   1.084       .  S
C2503      C2504   1.409       .  A
C2503     Br2511   1.920       .  S
C2504      C2505   1.402       .  A
C2505      C2506   1.398       .  A
C2505      H2508   1.084       .  S
C2506     Br2512   1.919       .  S
C2513      C2514   1.419       .  A
C2513      C2518   1.408       .  A
C2514      C2515   1.398       .  A
C2514     Br2530   1.922       .  S
C2515      C2516   1.398       .  A
C2515      H2519   1.084       .  S
C2516      C2520   1.472       .  S
C2516      C2517   1.404       .  A
C2517      C2518   1.396       .  A
C2517     Br2529   1.919       .  S
C2518      H2521   1.083       .  S
C2520      C2522   1.398       .  A
C2520      C2526   1.403       .  A
C2522      C2523   1.397       .  A
C2522      H2527   1.084       .  S
C2523      C2524   1.419       .  A
C2523     Br2531   1.922       .  S
C2524      C2525   1.409       .  A
C2525      C2526   1.398       .  A
C2525      H2528   1.083       .  S
C2526     Br2532   1.919       .  S
C2533      C2534   1.412       .  A
C2533      C2538   1.404       .  A
C2534      C2535   1.399       .  A
C2534     Br2550   1.921       .  S
C2535      C2536   1.401       .  A
C2535      H2539   1.084       .  S
C2536      C2540   1.475       .  S
C2536      C2537   1.407       .  A
C2537      C2538   1.398       .  A
C2537     Br2549   1.919       .  S
C2538      H2541   1.083       .  S
C2540      C2542   1.401       .  A
C2540      C2546   1.406       .  A
C2542      C2543   1.399       .  A
C2542      H2547   1.084       .  S
C2543      C2544   1.414       .  A
C2543     Br2551   1.920       .  S
C2544      C2545   1.406       .  A
C2545      C2546   1.397       .  A
C2545      H2548   1.083       .  S
C2546     Br2552   1.919       .  S
C2553      C2554   1.413       .  A
C2553      C2558   1.405       .  A
C2554      C2555   1.398       .  A
C2554     Br2570   1.920       .  S
C2555      C2556   1.401       .  A
C2555      H2559   1.084       .  S
C2556      C2560   1.473   1_655  S
C2556      C2557   1.405       .  A
C2557      C2558   1.397       .  A
C2557     Br2569   1.919       .  S
C2558      H2561   1.084       .  S
C2560      C2562   1.400       .  A
C2560      C2566   1.406       .  A
C2562      C2563   1.397       .  A
C2562      H2567   1.084       .  S
C2563      C2564   1.413       .  A
C2563     Br2571   1.921       .  S
C2564      C2565   1.404       .  A
C2565      C2566   1.398       .  A
C2565      H2568   1.084       .  S
C2566     Br2572   1.918       .  S
C2573      C2574   1.414       .  A
C2573      C2578   1.406       .  A
C2574      C2575   1.398       .  A
C2574     Br2590   1.921       .  S
C2575      C2576   1.401       .  A
C2575      H2579   1.084       .  S
C2576      C2580   1.480   1_545  S
C2576      C2577   1.409       .  A
C2577      C2578   1.401       .  A
C2577     Br2589   1.919       .  S
C2578      H2581   1.083       .  S
C2580      C2582   1.402       .  A
C2580      C2586   1.408       .  A
C2582      C2583   1.400       .  A
C2582      H2587   1.084       .  S
C2583      C2584   1.413       .  A
C2583     Br2591   1.921       .  S
C2584      C2585   1.405       .  A
C2585      C2586   1.399       .  A
C2585      H2588   1.083       .  S
C2586     Br2592   1.919       .  S
