geometry optimzed in LAMMPS
_audit_creation_date              2020-12-01 
_audit_creation_method            'lammps2cif' 
_symmetry_space_group_name_H-M    'P1' 
_symmetry_Int_Tables_number       1 
_symmetry_cell_setting            triclinic 
loop_ 
_symmetry_equiv_pos_as_xyz 
  x,y,z 
_cell_length_a                    28.2871092 
_cell_length_b                    28.692706320314016 
_cell_length_c                    29.282344171266868 
_cell_angle_alpha                 90.13992830850708 
_cell_angle_beta                  93.92273929904627 
_cell_angle_gamma                 88.41281961083556 
loop_ 
_atom_site_label 
_atom_site_type_symbol 
_atom_site_fract_x 
_atom_site_fract_y 
_atom_site_fract_z 
_atom_site_charge 
Zr1        Zr  0.80136227  0.69427728  0.81153366     2.17500
O2          O  0.85082639  0.63120426  0.84661144    -0.51300
O3          O  0.78971454  0.71694725  0.89147376    -0.74500
O4          O  0.88630530  0.71881860  0.82555179    -0.81300
O5          O  0.70292895  0.60666463  0.77165423    -0.83000
O6          O  0.88977540  0.79372730  0.80085555    -0.78600
O7          O  0.77416169  0.61251894  0.81270844    -0.90300
O8          O  0.71548856  0.74735913  0.89618404    -0.76200
O9          O  0.78363632  0.77519358  0.82312562    -0.85700
O10         O  0.71669069  0.70376189  0.81182430    -0.85400
O11         O  0.83247464  0.73228781  0.74702568    -0.72200
O12         O  0.76566717  0.66892200  0.73864847    -0.84300
Zr13       Zr  0.69751820  0.80084548  0.68599463     2.26400
Zr14       Zr  0.81449372  0.81352479  0.75936545     2.06300
Zr15       Zr  0.68084526  0.68151534  0.73858989     2.10000
Zr16       Zr  0.69914381  0.78411889  0.82239311     1.78800
O17         O  0.66141069  0.62085414  0.68257248    -0.93100
O18         O  0.71362101  0.84730475  0.87690708    -0.40900
O19         O  0.66443452  0.76281319  0.74907980    -0.77500
O20         O  0.73010083  0.82571157  0.76031423    -0.96200
O21         O  0.78171454  0.78910021  0.68625532    -0.89500
O22         O  0.71218956  0.71884402  0.67513279    -0.92400
C23         C  0.75572839  0.73363035  0.91436339     1.01400
C24         C  0.73752325  0.58961024  0.79736518     1.14300
C25         C  0.90880039  0.75724613  0.82050775     1.05100
O26         O  0.82726618  0.87368213  0.81734435    -0.94500
O27         O  0.79689793  0.88690461  0.72014362    -0.90300
O28         O  0.72785085  0.87991181  0.67601942    -0.83400
C29         C  0.76416790  0.90291708  0.69148086     1.11700
O30         O  0.85644639  0.64537012  0.68016431    -0.96500
Zr31       Zr  0.79624811  0.70790467  0.67539315     1.88900
O32         O  0.70725425  0.77805253  0.60623857    -0.73200
O33         O  0.87914335  0.83722600  0.71439276    -0.52400
O34         O  0.87034641  0.71732201  0.63913372    -0.97100
O35         O  0.76573064  0.64577999  0.62602365    -0.54300
O36         O  0.78460533  0.76029304  0.61092914    -0.73700
C37         C  0.74479814  0.76294976  0.58813227     0.98700
O38         O  0.64588490  0.86696052  0.66160435    -0.62500
O39         O  0.61750481  0.66240105  0.78731426    -0.57300
O40         O  0.61390498  0.77777631  0.67141486    -0.94000
O41         O  0.60374671  0.70503425  0.69934739    -0.92400
O42         O  0.62299735  0.75227509  0.83797814    -0.92800
O43         O  0.63976454  0.84726505  0.82248756    -0.91500
C44         C  0.58807358  0.74212409  0.67786399     1.17500
H45         H  0.70499569  0.68503131  0.83574410     0.33500
H46         H  0.72275366  0.85845451  0.76454655     0.44300
H47         H  0.69588788  0.70688419  0.64767074     0.37800
H48         H  0.86597471  0.72631134  0.74488303     0.34300
H49         H  0.69259200  0.84132978  0.90182222     0.26100
H50         H  0.89827021  0.85813330  0.73477377     0.32000
H51         H  0.88948651  0.73732310  0.66040529     0.37900
H52         H  0.61790120  0.76181986  0.86982318     0.32400
H53         H  0.60149188  0.63593308  0.77169358     0.31300
H54         H  0.69064549  0.60123594  0.68148974     0.33000
H55         H  0.76310543  0.61897791  0.64680445     0.31900
H56         H  0.61897348  0.84221581  0.79441164     0.35900
H57         H  0.62832431  0.85695051  0.63300318     0.28700
H58         H  0.86165085  0.64293882  0.87729015     0.32900
H59         H  0.84808363  0.62582474  0.70608123     0.35700
H60         H  0.63327751  0.64859904  0.81551695     0.28400
H61         H  0.62177927  0.86929578  0.68454722     0.41200
H62         H  0.79935647  0.87250117  0.83586417     0.31300
H63         H  0.74595835  0.84083131  0.89088877     0.38900
H64         H  0.79256439  0.63686169  0.60756200     0.30800
H65         H  0.89942620  0.80883401  0.71156750     0.30800
H66         H  0.87973174  0.62933738  0.82936655     0.31100
C67         C  0.69997210  0.31196784  0.50908100     0.86500
C68         C  0.70639837  0.27989522  0.55031048    -0.53700
C69         C  0.74465193  0.24955189  0.54981121     0.09500
C70         C  0.77141385  0.25309092  0.50526234     0.20400
C71         C  0.74789856  0.33498762  0.50612640    -0.54400
C72         C  0.78491153  0.30433372  0.50398128     0.09600
C73         C  0.69520331  0.27965023  0.46765887    -0.53900
C74         C  0.73320763  0.24934238  0.46413875     0.10100
H75         H  0.68529408  0.28426588  0.57975789     0.14700
H76         H  0.80200668  0.22815778  0.50371690     0.00400
H77         H  0.75213321  0.37253356  0.50504782     0.15000
H78         H  0.66759466  0.28495378  0.44035303     0.14800
C79         C  0.14637959  0.31087879  0.49948454     0.86500
C80         C  0.14981728  0.28549665  0.54494300    -0.53700
C81         C  0.19251328  0.26297464  0.55531219     0.09500
C82         C  0.22707989  0.26662541  0.51584899     0.20400
C83         C  0.18896447  0.34248205  0.50095325    -0.54400
C84         C  0.23121985  0.31955866  0.51015959     0.09600
C85         C  0.15545262  0.27353177  0.46427469    -0.53900
C86         C  0.19886870  0.25140847  0.47020723     0.10100
H87         H  0.12208027  0.28900432  0.56874130     0.14700
H88         H  0.26158818  0.24777904  0.52308380     0.00400
H89         H  0.18578920  0.38015722  0.49714822     0.15000
H90         H  0.13274354  0.27112604  0.43287511     0.14800
C91         C  0.72933218  0.66079484  0.50950315     0.86500
C92         C  0.71844386  0.68699865  0.46494935    -0.53700
C93         C  0.74322642  0.72702007  0.46140751     0.09500
C94         C  0.77412664  0.73873835  0.50551717     0.20400
C95         C  0.78381865  0.65474791  0.51455751    -0.54400
C96         C  0.80712185  0.69567877  0.51271571     0.09600
C97         C  0.71633508  0.69568108  0.54588308    -0.53900
C98         C  0.74005587  0.73644879  0.54501321     0.10100
H99         H  0.69532388  0.67333584  0.43730142     0.14700
H100        H  0.79307252  0.77201549  0.50375610     0.00400
H101        H  0.80218485  0.62111372  0.51878261     0.15000
H102        H  0.69347742  0.68688927  0.57267533     0.14800
C103        C  0.27091296  0.66052793  0.51618496     0.86500
C104        C  0.28524132  0.69833520  0.55046215    -0.53700
C105        C  0.26223486  0.74051417  0.54264060     0.09500
C106        C  0.22993405  0.74124010  0.49732566     0.20400
C107        C  0.21648970  0.65991266  0.51369449    -0.54400
C108        C  0.19496088  0.70210907  0.50392257     0.09600
C109        C  0.28308002  0.67975518  0.47076172    -0.53900
C110        C  0.26177910  0.72211326  0.45980978     0.10100
H111        H  0.30522148  0.68991338  0.58260966     0.14700
H112        H  0.21275538  0.77575519  0.48908043     0.00400
H113        H  0.19674463  0.62884168  0.51983133     0.15000
H114        H  0.30507665  0.66006307  0.44811942     0.14800
C115        C  0.33374073  0.50935694  0.88752101     0.86500
C116        C  0.33105230  0.54803292  0.85150886    -0.53700
C117        C  0.28854126  0.55229741  0.82645372     0.09500
C118        C  0.25364419  0.51335473  0.83748086     0.20400
C119        C  0.29008703  0.51845824  0.91529246    -0.54400
C120        C  0.24825826  0.52056080  0.88854619     0.09600
C121        C  0.32319851  0.46448012  0.86134266    -0.53900
C122        C  0.28106244  0.46521790  0.83586145     0.10100
H123        H  0.35830538  0.57392651  0.85041388     0.14700
H124        H  0.21954323  0.51480808  0.81627450     0.00400
H125        H  0.29192581  0.52212349  0.95229920     0.15000
H126        H  0.34634272  0.43358370  0.86435168     0.14800
C127        C  0.35143282  0.49120104  0.16074424     0.86500
C128        C  0.34863423  0.46135604  0.20314194    -0.53700
C129        C  0.30439937  0.45944575  0.21916224     0.09500
C130        C  0.26882623  0.49599512  0.19546559     0.20400
C131        C  0.30993348  0.47641257  0.12725091    -0.54400
C132        C  0.26675633  0.47931337  0.14595943     0.09600
C133        C  0.33746135  0.53983911  0.17604202    -0.53900
C134        C  0.29338778  0.54394933  0.19294455     0.10100
H135        H  0.37723090  0.43675179  0.21363154     0.14700
H136        H  0.23375297  0.49832619  0.21036840     0.00400
H137        H  0.31412379  0.46596502  0.09205242     0.15000
H138        H  0.35999123  0.56919318  0.17127704     0.14800
C139        C  0.70095034  0.50076698  0.87999382     0.86500
C140        C  0.70493329  0.45609793  0.85238250    -0.53700
C141        C  0.74007147  0.45568358  0.82286518     0.09500
C142        C  0.76726077  0.50215387  0.82217421     0.20400
C143        C  0.75120368  0.50737887  0.90286779    -0.54400
C144        C  0.78557495  0.50805295  0.87180244     0.09600
C145        C  0.69420093  0.53973762  0.84476238    -0.53900
C146        C  0.72976879  0.54252280  0.81576827     0.10100
H147        H  0.68340929  0.42599141  0.85760622     0.14700
H148        H  0.79528836  0.50247170  0.79738460     0.00400
H149        H  0.75883625  0.51092847  0.93954221     0.15000
H150        H  0.66705602  0.56708427  0.84711919     0.14800
C151        C  0.82012068  0.48317224  0.12265438     0.86500
C152        C  0.82752169  0.44322318  0.15624755    -0.53700
C153        C  0.79395251  0.44115072  0.18725553     0.09500
C154        C  0.75751115  0.48365057  0.18350502     0.20400
C155        C  0.76851675  0.47936541  0.10180387    -0.54400
C156        C  0.73561097  0.47973488  0.13418474     0.09600
C157        C  0.82025268  0.52714641  0.15130190    -0.53900
C158        C  0.78694780  0.52903788  0.18247081     0.10100
H159        H  0.85423936  0.41580392  0.15222727     0.14700
H160        H  0.73094022  0.48406968  0.20974317     0.00400
H161        H  0.75909694  0.47677122  0.06532433     0.15000
H162        H  0.84225287  0.55653928  0.14459802     0.14800
C163        C  0.50878614  0.81494546  0.13528014     0.86500
C164        C  0.46135613  0.79210535  0.13567628    -0.53700
C165        C  0.45780442  0.76324750  0.17186544     0.09500
C166        C  0.50541214  0.75674923  0.20189284     0.20400
C167        C  0.51677840  0.83737371  0.18380548    -0.54400
C168        C  0.51392220  0.80621518  0.21895357     0.09600
C169        C  0.54483448  0.77513008  0.13294177    -0.53900
C170        C  0.54703745  0.74598074  0.16963950     0.10100
H171        H  0.43072563  0.80393137  0.11380726     0.14700
H172        H  0.50340777  0.73070737  0.22966098     0.00400
H173        H  0.52159611  0.87440457  0.18945910     0.15000
H174        H  0.57344795  0.77681476  0.10998043     0.14800
C175        C  0.49503508  0.12029987  0.18689664     0.86500
C176        C  0.54268063  0.14281429  0.18692477    -0.53700
C177        C  0.54983563  0.17568456  0.21998964     0.09500
C178        C  0.50622360  0.18429141  0.24906525     0.20400
C179        C  0.49150343  0.10215266  0.23638176    -0.54400
C180        C  0.49766282  0.13625161  0.26897422     0.09600
C181        C  0.45905902  0.16018581  0.18077028    -0.53900
C182        C  0.46220060  0.19282617  0.21460005     0.10100
H183        H  0.57003977  0.13110886  0.16482093     0.14700
H184        H  0.51136052  0.21219871  0.27515802     0.00400
H185        H  0.48469405  0.06618540  0.24462781     0.15000
H186        H  0.42812544  0.15794327  0.15665702     0.14800
C187        C  0.48946979  0.78126015  0.59355034     0.86500
C188        C  0.44579594  0.75735586  0.61010062    -0.53700
C189        C  0.44674230  0.74999670  0.65648307     0.09500
C190        C  0.49477542  0.76543450  0.68147611     0.20400
C191        C  0.49393311  0.82567789  0.62307896    -0.54400
C192        C  0.49669332  0.81688565  0.66910050     0.09600
C193        C  0.53242344  0.75062391  0.61026719    -0.53900
C194        C  0.53770400  0.74392948  0.65663782     0.10100
H195        H  0.41392607  0.75287195  0.58780720     0.14700
H196        H  0.49715436  0.75860379  0.71890538     0.00400
H197        H  0.49594179  0.86050919  0.60898771     0.15000
H198        H  0.56090352  0.74239802  0.58819566     0.14800
C199        C  0.50360946  0.16963336  0.64413216     0.86500
C200        C  0.54095674  0.20410254  0.66112856    -0.53700
C201        C  0.54566695  0.20978793  0.70800820     0.09500
C202        C  0.50531985  0.18583249  0.73202463     0.20400
C203        C  0.51333820  0.12585480  0.67394584    -0.54400
C204        C  0.51416951  0.13487985  0.71991760     0.09600
C205        C  0.45752364  0.19033583  0.65899353    -0.53900
C206        C  0.45675826  0.19773626  0.70504812     0.10100
H207        H  0.56724644  0.21574644  0.63860306     0.14700
H208        H  0.50556078  0.19272568  0.76938621     0.00400
H209        H  0.51936412  0.09119577  0.66008283     0.15000
H210        H  0.42677011  0.19547218  0.63506409     0.14800
Zr211      Zr  0.28607458  0.20784946  0.69098829     2.17500
O212        O  0.31862630  0.18260520  0.61960846    -0.51300
O213        O  0.26388962  0.12443502  0.68391599    -0.74500
O214        O  0.37295679  0.20004089  0.69737145    -0.81300
O215        O  0.17487519  0.26197954  0.63322571    -0.83000
O216        O  0.40819540  0.21940291  0.76663545    -0.78600
O217        O  0.24740956  0.23363721  0.61658952    -0.90300
O218        O  0.22588857  0.10172183  0.74563259    -0.76200
O219        O  0.30253507  0.18116267  0.76780608    -0.85700
O220        O  0.20986087  0.19621066  0.71861187    -0.85400
O221        O  0.32631170  0.27034647  0.73263241    -0.72200
O222        O  0.24474834  0.28240018  0.68673445    -0.84300
Zr223      Zr  0.22399405  0.30531705  0.83507751     2.26400
Zr224      Zr  0.34079998  0.24358424  0.81030014     2.06300
Zr225      Zr  0.16953373  0.27069190  0.71562014     2.10000
Zr226      Zr  0.22649835  0.16940366  0.79515543     1.78800
O227        O  0.13072130  0.34063864  0.68225982    -0.93100
O228        O  0.28490950  0.11499274  0.83183805    -0.40900
O229        O  0.18496923  0.24359160  0.79243688    -0.77500
O230        O  0.26498962  0.22957977  0.83868087    -0.96200
O231        O  0.29957671  0.31777026  0.80616680    -0.89500
O232        O  0.20811341  0.33244199  0.75812463    -0.92400
C233        C  0.24156129  0.09408724  0.70628110     1.01400
C234        C  0.20585982  0.25085488  0.60449829     1.14300
C235        C  0.40996465  0.20599745  0.72486470     1.05100
O236        O  0.37803715  0.17688423  0.85113325    -0.94500
O237        O  0.33803389  0.26058697  0.89275386    -0.90300
O238        O  0.26463723  0.28556044  0.91067444    -0.83400
C239        C  0.30734488  0.27106538  0.92228200     1.11700
O240        O  0.32725657  0.34954762  0.66019705    -0.96500
Zr241      Zr  0.28358805  0.34331239  0.72877802     1.88900
O242        O  0.24775671  0.38892090  0.83871228    -0.73200
O243        O  0.40990220  0.29081439  0.82829185    -0.52400
O244        O  0.35797723  0.38419475  0.73704705    -0.97100
O245        O  0.23353236  0.39180750  0.67595752    -0.54300
O246        O  0.27598151  0.41409703  0.77262788    -0.73700
C247        C  0.26498554  0.42076774  0.81374676     0.98700
O248        O  0.18174251  0.34300900  0.89573805    -0.62500
O249        O  0.10286800  0.22328014  0.68879873    -0.57300
O250        O  0.13697650  0.29571928  0.83370449    -0.94000
O251        O  0.10290267  0.28607386  0.76168942    -0.92400
O252        O  0.14852024  0.13572350  0.79622014    -0.92800
O253        O  0.19735985  0.15227073  0.86947498    -0.91500
C254        C  0.10060437  0.29039068  0.80498358     1.17500
H255        H  0.19149553  0.17448994  0.70006513     0.33500
H256        H  0.26776850  0.21558292  0.86862038     0.44300
H257        H  0.18898671  0.36089596  0.75715850     0.37800
H258        H  0.35555886  0.27800210  0.71971266     0.34300
H259        H  0.29324957  0.12863242  0.86231973     0.26100
H260        H  0.39690121  0.32265690  0.83325832     0.32000
H261        H  0.37092169  0.37712725  0.76860408     0.37900
H262        H  0.12620059  0.16289897  0.79671657     0.32400
H263        H  0.11580254  0.20036406  0.66726756     0.31300
H264        H  0.09678826  0.33294899  0.67810104     0.33000
H265        H  0.23405506  0.37579516  0.64598686     0.31900
H266        H  0.18526031  0.18261619  0.88068932     0.35900
H267        H  0.17747447  0.31822698  0.91845714     0.28700
H268        H  0.33852811  0.15439693  0.62726810     0.32900
H269        H  0.31214195  0.32731425  0.63817552     0.35700
H270        H  0.09573060  0.20448158  0.71566466     0.28400
H271        H  0.20469485  0.36418063  0.91139920     0.41200
H272        H  0.41076990  0.18659685  0.85975786     0.31300
H273        H  0.26688754  0.08694437  0.83831323     0.38900
H274        H  0.25182568  0.42033121  0.67234671     0.30800
H275        H  0.42250114  0.28029432  0.85904248     0.30800
H276        H  0.34117580  0.20678381  0.61210230     0.31100
Zr277      Zr  0.30433630  0.70907034  0.18087517     2.17500
O278        O  0.34855242  0.66813494  0.12339629    -0.51300
O279        O  0.28554531  0.73769922  0.10214604    -0.74500
O280        O  0.29511743  0.62483970  0.18138202    -0.81300
O281        O  0.39162505  0.80105830  0.20515717    -0.83000
O282        O  0.23590969  0.60023753  0.22328754    -0.78600
O283        O  0.38834692  0.72402468  0.18649396    -0.90300
O284        O  0.20842530  0.75876848  0.10137141    -0.76200
O285        O  0.21988537  0.70956774  0.17970929    -0.85700
O286        O  0.28319839  0.79050803  0.17598879    -0.85400
O287        O  0.28539644  0.67554972  0.25280961    -0.72200
O288        O  0.34201244  0.74778179  0.24618225    -0.84300
Zr289      Zr  0.21394290  0.79154660  0.31327860     2.26400
Zr290      Zr  0.19993538  0.67522153  0.25107695     2.06300
Zr291      Zr  0.31872175  0.82807448  0.24256197     2.10000
Zr292      Zr  0.19928897  0.79096231  0.17591738     1.78800
O293        O  0.37778755  0.85798655  0.29876484    -0.93100
O294        O  0.11875223  0.77173925  0.14874846    -0.40900
O295        O  0.23462451  0.82584574  0.24297989    -0.77500
O296        O  0.17859963  0.75681294  0.24446879    -0.96200
O297        O  0.23833203  0.71177737  0.31732316    -0.89500
O298        O  0.29857046  0.79462988  0.31422820    -0.92400
C299        C  0.24718600  0.75458967  0.08189516     1.01400
C300        C  0.41013167  0.76245396  0.19005599     1.14300
C301        C  0.27200181  0.59220247  0.19906533     1.05100
O302        O  0.14259170  0.63874324  0.19754390    -0.94500
O303        O  0.12001246  0.70018490  0.27763390    -0.90300
O304        O  0.13233243  0.76713466  0.31831950    -0.83400
C305        C  0.10476283  0.73682961  0.29910021     1.11700
O306        O  0.39201490  0.66782290  0.29740237    -0.96500
Zr307      Zr  0.32278106  0.71458571  0.31643183     1.88900
O308        O  0.23282586  0.76627031  0.39311316    -0.73200
O309        O  0.18756717  0.62207954  0.31361027    -0.52400
O310        O  0.32686621  0.63854834  0.35351996    -0.97100
O311        O  0.39226178  0.74786431  0.35692663    -0.54300
O312        O  0.30132255  0.72377358  0.39307530    -0.73700
C313        C  0.26581745  0.74032287  0.41293335     0.98700
O314        O  0.17133902  0.84398885  0.36316817    -0.62500
O315        O  0.33595129  0.89057341  0.19027216    -0.57300
O316        O  0.21675644  0.87545104  0.30244073    -0.94000
O317        O  0.27617127  0.90203496  0.26223190    -0.92400
O318        O  0.21007744  0.86298163  0.13460357    -0.92800
O319        O  0.13930931  0.85166905  0.18680887    -0.91500
C320        C  0.23845018  0.90884116  0.28425938     1.17500
H321        H  0.29382883  0.80540251  0.14916592     0.33500
H322        H  0.14552631  0.76424454  0.23828864     0.44300
H323        H  0.31129077  0.81185979  0.34043206     0.37800
H324        H  0.29969845  0.64520739  0.25894010     0.34300
H325        H  0.11528241  0.78274699  0.11663763     0.26100
H326        H  0.15687232  0.60765163  0.30482006     0.32000
H327        H  0.35523851  0.63942973  0.37525672     0.37900
H328        H  0.23837988  0.87702015  0.15019934     0.32400
H329        H  0.37088461  0.89289794  0.19295821     0.31300
H330        H  0.39306162  0.88318812  0.28261564     0.33000
H331        H  0.37986483  0.77144732  0.37810331     0.31900
H332        H  0.14002318  0.85629230  0.22035841     0.35900
H333        H  0.15460593  0.82361437  0.38362018     0.28700
H334        H  0.32543043  0.64873942  0.10559716     0.32900
H335        H  0.41376887  0.69014535  0.28474096     0.35700
H336        H  0.32875964  0.87815334  0.15909167     0.28400
H337        H  0.19608487  0.85839905  0.38376034     0.41200
H338        H  0.11661000  0.66236614  0.19234575     0.31300
H339        H  0.11925314  0.73731456  0.14641028     0.38900
H340        H  0.40720911  0.76626320  0.33354645     0.30800
H341        H  0.21148893  0.59657431  0.31078049     0.30800
H342        H  0.37033489  0.64564122  0.14032891     0.31100
Zr343      Zr  0.82224513  0.27385555  0.20594100     2.17500
O344        O  0.89194293  0.29663777  0.16763959    -0.51300
O345        O  0.81217312  0.35960048  0.19758373    -0.74500
O346        O  0.81084160  0.25569357  0.12307465    -0.81300
O347        O  0.89654061  0.27738227  0.31786713    -0.83000
O348        O  0.73444498  0.23511982  0.10669285    -0.78600
O349        O  0.90156133  0.26089598  0.24274113    -0.90300
O350        O  0.75146749  0.39206779  0.23438078    -0.76200
O351        O  0.74042880  0.29566501  0.19890582    -0.85700
O352        O  0.80370976  0.30560822  0.27814715    -0.85400
O353        O  0.78359517  0.20149327  0.18841925    -0.72200
O354        O  0.84069565  0.21320852  0.26206128    -0.84300
Zr355      Zr  0.69755202  0.19438297  0.30909070     2.26400
Zr356      Zr  0.70133185  0.22432393  0.18139032     2.06300
Zr357      Zr  0.82060676  0.24511560  0.33395251     2.10000
Zr358      Zr  0.72133866  0.32558831  0.27197514     1.78800
O359        O  0.87976811  0.19331758  0.37297490    -0.93100
O360        O  0.65404467  0.36521857  0.23076731    -0.40900
O361        O  0.73782124  0.26531637  0.32735178    -0.77500
O362        O  0.67960656  0.25591843  0.25352700    -0.96200
O363        O  0.71703680  0.16331782  0.23712571    -0.89500
O364        O  0.78002598  0.17401603  0.31767164    -0.92400
C365        C  0.78576052  0.39495945  0.20853945     1.01400
C366        C  0.91906282  0.27609313  0.28130356     1.14300
C367        C  0.77655234  0.24258918  0.09479472     1.05100
O368        O  0.64612410  0.27772363  0.13899474    -0.94500
O369        O  0.62213251  0.20039718  0.19518064    -0.90300
O370        O  0.61659982  0.19082428  0.27185102    -0.83400
C371        C  0.59885113  0.19132579  0.23011289     1.11700
O372        O  0.86720972  0.12180438  0.20219148    -0.96500
Zr373      Zr  0.79923858  0.14254738  0.24561609     1.88900
O374        O  0.70799855  0.10894126  0.31956722    -0.73200
O375        O  0.68365858  0.15709844  0.13284636    -0.52400
O376        O  0.76933272  0.09077660  0.18486683    -0.97100
O377        O  0.86084052  0.09898981  0.29130929    -0.54300
O378        O  0.76644201  0.07557317  0.28049005    -0.73700
C379        C  0.73296148  0.07308950  0.30736497     0.98700
O380        O  0.63867916  0.17548697  0.36263443    -0.62500
O381        O  0.83428680  0.31023640  0.38631143    -0.57300
O382        O  0.70873554  0.22347400  0.38854191    -0.94000
O383        O  0.78721103  0.23261338  0.40736492    -0.92400
O384        O  0.74985720  0.37619883  0.33423925    -0.92800
O385        O  0.65742901  0.34628554  0.32053615    -0.91500
C386        C  0.74383015  0.23237361  0.41762079     1.17500
H387        H  0.82230030  0.33269388  0.28549285     0.33500
H388        H  0.64661768  0.26565458  0.25193257     0.44300
H389        H  0.78687688  0.15204622  0.34234126     0.37800
H390        H  0.79348526  0.18661475  0.16098670     0.34300
H391        H  0.65730628  0.39865391  0.23850044     0.26100
H392        H  0.71396006  0.14809293  0.11979589     0.32000
H393        H  0.78323585  0.10159612  0.15678482     0.37900
H394        H  0.73639862  0.40753102  0.32605943     0.32400
H395        H  0.84378158  0.33623795  0.36708628     0.31300
H396        H  0.89662147  0.21343272  0.39590370     0.33000
H397        H  0.84864799  0.09565525  0.32200148     0.31900
H398        H  0.64530478  0.31601552  0.33006208     0.35900
H399        H  0.61469999  0.20132635  0.35994965     0.28700
H400        H  0.88040690  0.32036776  0.14474834     0.32900
H401        H  0.87723375  0.15174619  0.18973980     0.35700
H402        H  0.80255120  0.32010654  0.39564088     0.28400
H403        H  0.62227298  0.14795604  0.34953404     0.41200
H404        H  0.66614481  0.29768241  0.12119231     0.31300
H405        H  0.66093253  0.36312218  0.19811271     0.38900
H406        H  0.88719595  0.12084067  0.29611490     0.30800
H407        H  0.67796671  0.13152261  0.15424734     0.30800
H408        H  0.90104948  0.26915403  0.14938794     0.31100
Zr409      Zr  0.71211581  0.19162520  0.69393141     2.17500
O410        O  0.65739941  0.15251481  0.63908355    -0.51300
O411        O  0.73785917  0.10872461  0.68961231    -0.74500
O412        O  0.73015243  0.20785940  0.61535633    -0.81300
O413        O  0.60631232  0.22417714  0.77061146    -0.83000
O414        O  0.80064168  0.24446303  0.61543864    -0.78600
O415        O  0.62762914  0.19921424  0.70122906    -0.90300
O416        O  0.78498098  0.08664221  0.75185743    -0.76200
O417        O  0.79440052  0.18008626  0.71196713    -0.85700
O418        O  0.71584914  0.16853039  0.77242123    -0.85400
O419        O  0.74516622  0.26725676  0.68199629    -0.72200
O420        O  0.67910816  0.25479792  0.73682889    -0.84300
Zr421      Zr  0.80390413  0.29736287  0.81845212     2.26400
Zr422      Zr  0.82883688  0.25407058  0.69777061     2.06300
Zr423      Zr  0.68417124  0.23309749  0.81564350     2.10000
Zr424      Zr  0.79882968  0.15894956  0.79109285     1.78800
O425        O  0.63139461  0.28614696  0.85449446    -0.93100
O426        O  0.87366297  0.12099650  0.77315976    -0.40900
O427        O  0.76766133  0.22413833  0.83029967    -0.77500
O428        O  0.83495199  0.23118429  0.77735179    -0.96200
O429        O  0.79674875  0.31916344  0.73985994    -0.89500
O430        O  0.71997428  0.30723333  0.80387159    -0.92400
C431        C  0.76384279  0.07845691  0.71301743     1.01400
C432        C  0.59600965  0.21144811  0.72868145     1.14300
C433        C  0.76195320  0.22927733  0.59492109     1.05100
O434        O  0.88378474  0.19952223  0.66354803    -0.94500
O435        O  0.90696863  0.26822110  0.73811770    -0.90300
O436        O  0.88913735  0.30047191  0.80631909    -0.83400
C437        C  0.91895670  0.28435607  0.77835934     1.11700
O438        O  0.65635439  0.33530282  0.65864280    -0.96500
Zr439      Zr  0.71274730  0.32895019  0.72518588     1.88900
O440        O  0.77867828  0.38066062  0.82386008    -0.73200
O441        O  0.86210239  0.32003199  0.66014238    -0.52400
O442        O  0.73748762  0.38439549  0.66930397    -0.97100
O443        O  0.63581258  0.35908938  0.74640628    -0.54300
O444        O  0.72907694  0.40184199  0.76299907    -0.73700
C445        C  0.75218037  0.41082721  0.80073304     0.98700
O446        O  0.84897420  0.33575441  0.88128507    -0.62500
O447        O  0.64751177  0.16759524  0.85100602    -0.57300
O448        O  0.79236711  0.26684236  0.89486077    -0.94000
O449        O  0.72096256  0.23202108  0.89622830    -0.92400
O450        O  0.76595985  0.11432588  0.85150237    -0.92800
O451        O  0.85428667  0.14778520  0.85774076    -0.91500
C452        C  0.76122445  0.24474136  0.91578470     1.17500
H453        H  0.69923248  0.14002026  0.77643082     0.33500
H454        H  0.86641390  0.22195495  0.78874698     0.44300
H455        H  0.70661832  0.33060000  0.82337816     0.37800
H456        H  0.73687816  0.28099010  0.65257461     0.34300
H457        H  0.87195643  0.11879587  0.73933574     0.26100
H458        H  0.88789450  0.30609108  0.64289703     0.32000
H459        H  0.77011061  0.37410733  0.66316081     0.37900
H460        H  0.75285795  0.13806908  0.87212507     0.32400
H461        H  0.62107351  0.18194041  0.86708142     0.31300
H462        H  0.64974339  0.29533386  0.88294738     0.33000
H463        H  0.64181854  0.37325049  0.77704862     0.31900
H464        H  0.87291274  0.17647633  0.85963919     0.35900
H465        H  0.87402883  0.31291389  0.89238671     0.28700
H466        H  0.67736278  0.13167319  0.62090885     0.32900
H467        H  0.63700817  0.30714985  0.65994946     0.35700
H468        H  0.63172157  0.15019727  0.82527964     0.28400
H469        H  0.86617636  0.36096188  0.86708851     0.41200
H470        H  0.86654309  0.17005231  0.65971012     0.31300
H471        H  0.89843382  0.14407034  0.78047978     0.38900
H472        H  0.61751889  0.33100678  0.75208777     0.30800
H473        H  0.83748924  0.32986942  0.63618657     0.30800
H474        H  0.64502550  0.17684146  0.61711420     0.31100
C475        C  0.78201096  0.81926332  0.00511886     0.86500
C476        C  0.79328982  0.78710636  0.96593487    -0.53700
C477        C  0.76664393  0.74807715  0.96234935     0.09500
C478        C  0.73250736  0.74379294  0.00215073     0.20400
C479        C  0.72793189  0.82849443  0.00029258    -0.54400
C480        C  0.70213879  0.78891767  0.99892127     0.09600
C481        C  0.79087533  0.78892856  0.04716294    -0.53900
C482        C  0.76377758  0.75000099  0.04750293     0.10100
H483        H  0.81525811  0.79814289  0.93905533     0.14700
H484        H  0.71171050  0.71149191  0.00108572     0.00400
H485        H  0.71159878  0.86322592  0.99891476     0.15000
H486        H  0.81513782  0.79896535  0.07557474     0.14800
C487        C  0.82403151  0.16445335  0.00439036     0.86500
C488        C  0.82710997  0.19785279  0.04510466    -0.53700
C489        C  0.78842148  0.22749917  0.04764908     0.09500
C490        C  0.75122908  0.22188438  0.00576919     0.20400
C491        C  0.77662451  0.14046100  0.00711101    -0.54400
C492        C  0.73899245  0.17039076  0.00792000     0.09600
C493        C  0.81762777  0.19541332  0.96221375    -0.53900
C494        C  0.77851498  0.22470749  0.96127249     0.10100
H495        H  0.85351057  0.19272356  0.07340497     0.14700
H496        H  0.71997768  0.24614959  0.00620425     0.00400
H497        H  0.77316621  0.10286351  0.00917580     0.15000
H498        H  0.83956365  0.19124218  0.93347448     0.14800
C499        C  0.23572706  0.84449857  0.98672932     0.86500
C500        C  0.22541358  0.82015990  0.03065168    -0.53700
C501        C  0.24823902  0.77775309  0.03701833     0.09500
C502        C  0.27868535  0.76323767  0.99704538     0.20400
C503        C  0.29002131  0.84620284  0.98742367    -0.54400
C504        C  0.31242674  0.80380226  0.99284473     0.09600
C505        C  0.22103931  0.80984085  0.94931513    -0.53900
C506        C  0.24422368  0.76727814  0.95349660     0.10100
H507        H  0.20294600  0.83593948  0.05523103     0.14700
H508        H  0.29695610  0.72862988  0.00161609     0.00400
H509        H  0.30906576  0.87825104  0.98390800     0.15000
H510        H  0.19823531  0.82009460  0.91957228     0.14800
C511        C  0.37475644  0.21265408  0.02284574     0.86500
C512        C  0.36070210  0.24304906  0.06215021    -0.53700
C513        C  0.31483579  0.25958820  0.05813448     0.09500
C514        C  0.28883350  0.24659390  0.01041116     0.20400
C515        C  0.33725400  0.17547919  0.01682025    -0.54400
C516        C  0.29227045  0.19295342  0.01005303     0.09600
C517        C  0.36785515  0.24349480  0.98090356    -0.53900
C518        C  0.32239368  0.26032196  0.97180090     0.10100
H519        H  0.38323123  0.24498371  0.09370045     0.14700
H520        H  0.25208184  0.26111216  0.00510458     0.00400
H521        H  0.34569512  0.13825446  0.01721631     0.15000
H522        H  0.39564929  0.24668635  0.95732233     0.14800
Zr523      Zr  0.29064450  0.80971351  0.69041519     2.17500
O524        O  0.33354207  0.87656304  0.66536685    -0.51300
O525        O  0.28070526  0.78311075  0.61066207    -0.74500
O526        O  0.37305840  0.78661681  0.67483951    -0.81300
O527        O  0.19645091  0.89966816  0.72887498    -0.83000
O528        O  0.38690631  0.71165022  0.69851976    -0.78600
O529        O  0.26024150  0.89162766  0.68566808    -0.90300
O530        O  0.20874918  0.75081537  0.59890751    -0.76200
O531        O  0.27592592  0.72934703  0.67615927    -0.85700
O532        O  0.20642127  0.80086418  0.68446660    -0.85400
O533        O  0.33049713  0.76947859  0.75507123    -0.72200
O534        O  0.26233238  0.83360084  0.76274494    -0.84300
Zr535      Zr  0.20200047  0.70153680  0.80801632     2.26400
Zr536      Zr  0.31599720  0.68885123  0.73928974     2.06300
Zr537      Zr  0.17813340  0.82326581  0.75672418     2.10000
Zr538      Zr  0.19201240  0.72038766  0.67264605     1.78800
O539        O  0.16012044  0.88200784  0.81362802    -0.93100
O540        O  0.20531728  0.64952431  0.62901114    -0.40900
O541        O  0.16235659  0.74240591  0.74407260    -0.77500
O542        O  0.23109249  0.67776852  0.73539834    -0.96200
O543        O  0.28653657  0.71112664  0.81151576    -0.89500
O544        O  0.21588728  0.78284833  0.82068216    -0.92400
C545        C  0.24861964  0.76266113  0.58533867     1.01400
C546        C  0.22644976  0.91600287  0.70255576     1.14300
C547        C  0.39963355  0.74922932  0.67870942     1.05100
O548        O  0.32073477  0.63075972  0.67873404    -0.94500
O549        O  0.30523066  0.61584517  0.77940176    -0.90300
O550        O  0.23818081  0.62167691  0.81856532    -0.83400
C551        C  0.27536962  0.59906827  0.80578077     1.11700
O552        O  0.36147557  0.84856129  0.82408526    -0.96500
Zr553      Zr  0.29968467  0.79131095  0.82626366     1.88900
O554        O  0.21379131  0.72469315  0.88870566    -0.73200
O555        O  0.38743614  0.66264295  0.78439429    -0.52400
O556        O  0.37542373  0.77316619  0.86782834    -0.97100
O557        O  0.27232040  0.85559046  0.87302976    -0.54300
O558        O  0.28999915  0.74415548  0.89319214    -0.73700
C559        C  0.25036257  0.74105728  0.91089301     0.98700
O560        O  0.15364813  0.63682701  0.82904632    -0.62500
O561        O  0.11261035  0.84609248  0.70226584    -0.57300
O562        O  0.11773854  0.72710310  0.81876912    -0.94000
O563        O  0.10780466  0.80276504  0.79584359    -0.92400
O564        O  0.11573211  0.75359177  0.64311551    -0.92800
O565        O  0.12973402  0.66325942  0.67010317    -0.91500
C566        C  0.09296640  0.76586201  0.81457691     1.17500
H567        H  0.19166658  0.81976711  0.65991739     0.33500
H568        H  0.22491923  0.64515683  0.73030654     0.44300
H569        H  0.20140703  0.79524960  0.84709633     0.37800
H570        H  0.36402793  0.77523595  0.75789328     0.34300
H571        H  0.18514736  0.65401013  0.60032749     0.26100
H572        H  0.40942031  0.68883116  0.78360989     0.32000
H573        H  0.38848442  0.74594779  0.85155648     0.37900
H574        H  0.12266206  0.77349194  0.61696178     0.32400
H575        H  0.08824805  0.82249212  0.70575762     0.31300
H576        H  0.13365764  0.90112397  0.79893948     0.33000
H577        H  0.25895690  0.87916197  0.85075943     0.31900
H578        H  0.13085499  0.65046812  0.70155129     0.35900
H579        H  0.13944307  0.64665224  0.85765070     0.28700
H580        H  0.34548093  0.86738330  0.63554173     0.32900
H581        H  0.35369947  0.86596092  0.79525907     0.35700
H582        H  0.09901686  0.87504997  0.71510916     0.28400
H583        H  0.12674017  0.63642245  0.80557300     0.41200
H584        H  0.31907332  0.60016120  0.69398798     0.31300
H585        H  0.23819145  0.65135604  0.61977995     0.38900
H586        H  0.30147841  0.86957414  0.88698260     0.30800
H587        H  0.37821111  0.66228379  0.81641271     0.30800
H588        H  0.36218304  0.87812365  0.68668871     0.31100
C589        C  0.80856058  0.00238443  0.62148657     0.86500
C590        C  0.80736612  0.95419661  0.64292158    -0.53700
C591        C  0.77213810  0.94937800  0.67183816     0.09500
C592        C  0.74189034  0.99480699  0.67798033     0.20400
C593        C  0.75820336  0.01166937  0.59908674    -0.54400
C594        C  0.72359637  0.00785788  0.62949153     0.09600
C595        C  0.81261431  0.03626835  0.66173844    -0.53900
C596        C  0.77677163  0.03415478  0.69051266     0.10100
H597        H  0.83136820  0.92561426  0.63468614     0.14700
H598        H  0.71368591  0.99130911  0.70226473     0.00400
H599        H  0.75077891  0.02118159  0.56338407     0.15000
H600        H  0.83762977  0.06446089  0.66322897     0.14800
C601        C  0.17377998  0.01118080  0.62588685     0.86500
C602        C  0.18378176  0.05411703  0.65518270    -0.53700
C603        C  0.22508730  0.05116792  0.68198341     0.09500
C604        C  0.25212136  0.00312888  0.67809016     0.20400
C605        C  0.21827475  0.00334255  0.59918334    -0.54400
C606        C  0.25923140  0.99932713  0.62694249     0.09600
C607        C  0.17441088  0.97059116  0.65933148    -0.53900
C608        C  0.21584664  0.96430085  0.68548455     0.10100
H609        H  0.16118141  0.08542566  0.65319129     0.14700
H610        H  0.28547123  0.99979377  0.70030810     0.00400
H611        H  0.21749521  0.00090471  0.56211275     0.15000
H612        H  0.14660140  0.94506370  0.65788926     0.14800
C613        C  0.69203933  0.98007495  0.38666609     0.86500
C614        C  0.68822265  0.94032952  0.35268715    -0.53700
C615        C  0.72281678  0.93875483  0.32271917     0.09500
C616        C  0.75608681  0.98137634  0.32729355     0.20400
C617        C  0.74359102  0.97681586  0.40852463    -0.54400
C618        C  0.77720341  0.97764194  0.37682584     0.09600
C619        C  0.68944997  0.02421022  0.35829028    -0.53900
C620        C  0.72346747  0.02670738  0.32781472     0.10100
H621        H  0.66399835  0.91194624  0.35627684     0.14700
H622        H  0.78312472  0.98188907  0.30152980     0.00400
H623        H  0.75242775  0.97414378  0.44511455     0.15000
H624        H  0.66477471  0.05286724  0.36460868     0.14800
C625        C  0.15997476  0.98998484  0.34233913     0.86500
C626        C  0.17019265  0.95628325  0.30367282    -0.53700
C627        C  0.21576961  0.95664696  0.28999030     0.09500
C628        C  0.24344372  0.99870772  0.31090388     0.20400
C629        C  0.20173296  0.98254500  0.37880680    -0.54400
C630        C  0.24532472  0.98745923  0.36169580     0.09600
C631        C  0.16697800  0.03775967  0.32252010    -0.53900
C632        C  0.21088448  0.04387944  0.30703161     0.10100
H633        H  0.14633984  0.92801111  0.29500317     0.14700
H634        H  0.27883048  0.00278999  0.29733788     0.00400
H635        H  0.19728229  0.97359861  0.41424499     0.15000
H636        H  0.14034858  0.06563238  0.32407516     0.14800
Zr637      Zr  0.71033186  0.68137252  0.18706324     2.17500
O638        O  0.66466656  0.62028438  0.14811141    -0.51300
O639        O  0.72410418  0.70950958  0.10765512    -0.74500
O640        O  0.62389938  0.70482571  0.17499300    -0.81300
O641        O  0.80979999  0.59300405  0.22851194    -0.83000
O642        O  0.61241901  0.77325628  0.21281524    -0.78600
O643        O  0.73916906  0.59902669  0.18600564    -0.90300
O644        O  0.80025551  0.72683777  0.11750998    -0.76200
O645        O  0.72115541  0.76335249  0.17998135    -0.85700
O646        O  0.79499524  0.69109456  0.19358102    -0.85400
O647        O  0.67663810  0.71525388  0.25358214    -0.72200
O648        O  0.74443013  0.65330315  0.26054482    -0.84300
Zr649      Zr  0.80158037  0.78557834  0.32307279     2.26400
Zr650      Zr  0.68779449  0.79771603  0.24581904     2.06300
Zr651      Zr  0.82787319  0.66639065  0.26749503     2.10000
Zr652      Zr  0.80458669  0.77343511  0.18544816     1.78800
O653        O  0.84427419  0.61453401  0.33276131    -0.93100
O654        O  0.76431814  0.83797474  0.14288435    -0.40900
O655        O  0.83405636  0.74800424  0.25887754    -0.77500
O656        O  0.77097501  0.81239081  0.24843224    -0.96200
O657        O  0.71876513  0.77083422  0.31883451    -0.89500
O658        O  0.79435528  0.70237693  0.33197795    -0.92400
C659        C  0.76241214  0.72486976  0.09207737     1.01400
C660        C  0.77653010  0.57588042  0.20199351     1.14300
C661        C  0.59722573  0.73930196  0.18802672     1.05100
O662        O  0.66023207  0.85300291  0.18620019    -0.94500
O663        O  0.70283365  0.87479431  0.27608544    -0.90300
O664        O  0.76950714  0.86752014  0.32406902    -0.83400
C665        C  0.73399378  0.89144640  0.30502147     1.11700
O666        O  0.65847778  0.62293129  0.31493242    -0.96500
Zr667      Zr  0.71107900  0.68851120  0.32529153     1.88900
O668        O  0.78554262  0.76212884  0.40188523    -0.73200
O669        O  0.63039532  0.82404501  0.29914600    -0.52400
O670        O  0.63281404  0.69151603  0.35525352    -0.97100
O671        O  0.74613201  0.62645995  0.37481997    -0.54300
O672        O  0.71027110  0.74326378  0.38745021    -0.73700
C673        C  0.74626056  0.74754899  0.41536030     0.98700
O674        O  0.85327607  0.83397620  0.37221265    -0.62500
O675        O  0.89914103  0.63320013  0.23721616    -0.57300
O676        O  0.88793479  0.77491195  0.31543668    -0.94000
O677        O  0.90474417  0.70382600  0.28478044    -0.92400
O678        O  0.88451218  0.76602394  0.15956166    -0.92800
O679        O  0.86093619  0.83608000  0.18474416    -0.91500
C680        C  0.91732512  0.74418318  0.30007160     1.17500
H681        H  0.81047529  0.67127218  0.17209174     0.33500
H682        H  0.77713427  0.84486977  0.24380188     0.44300
H683        H  0.81026306  0.69137813  0.36027263     0.37800
H684        H  0.64413623  0.70700392  0.25605028     0.34300
H685        H  0.78880570  0.85364570  0.12639579     0.26100
H686        H  0.60891941  0.84609848  0.28128684     0.32000
H687        H  0.62028395  0.72343770  0.34822437     0.37900
H688        H  0.89078234  0.73203063  0.15692684     0.32400
H689        H  0.90150056  0.60048402  0.24798664     0.31300
H690        H  0.85048213  0.58356261  0.31907987     0.33000
H691        H  0.71929642  0.61268572  0.38953242     0.31900
H692        H  0.86073202  0.85015032  0.21563897     0.35900
H693        H  0.85904580  0.86186581  0.35373745     0.28700
H694        H  0.65017066  0.63490934  0.11973109     0.32900
H695        H  0.66590009  0.60911678  0.28513963     0.35700
H696        H  0.89048580  0.63119714  0.20400900     0.28400
H697        H  0.83331390  0.84565254  0.39650734     0.41200
H698        H  0.63467049  0.87161120  0.19970656     0.31300
H699        H  0.74312841  0.82384297  0.11871104     0.38900
H700        H  0.76494623  0.64175721  0.40000055     0.30800
H701        H  0.61103888  0.79651776  0.30395685     0.30800
H702        H  0.63776883  0.61490858  0.16722713     0.31100
C703        C  0.00860119  0.78971999  0.90806507     0.86500
C704        C  0.96112896  0.79278434  0.88025721    -0.53700
C705        C  0.95752683  0.76363809  0.84346058     0.09500
C706        C  0.00517161  0.73585379  0.83619120     0.20400
C707        C  0.01641029  0.73771550  0.91938970    -0.54400
C708        C  0.01452511  0.71002503  0.88147415     0.09600
C709        C  0.04617268  0.80047669  0.87463739    -0.53900
C710        C  0.04679659  0.77112936  0.83764679     0.10100
H711        H  0.93117975  0.81357462  0.89112523     0.14700
H712        H  0.00346799  0.71263247  0.80574104     0.00400
H713        H  0.02196810  0.72405105  0.95397614     0.15000
H714        H  0.07403065  0.82507412  0.88291358     0.14800
C715        C  0.00671477  0.80744747  0.23776678     0.86500
C716        C  0.05168733  0.79832018  0.26806100    -0.53700
C717        C  0.05486110  0.75528633  0.28888669     0.09500
C718        C  0.00858758  0.72720948  0.27937665     0.20400
C719        C  0.00273094  0.76534550  0.20544892    -0.54400
C720        C  0.00358390  0.72381867  0.22715327     0.09600
C721        C  0.96676350  0.80299725  0.26955437    -0.53900
C722        C  0.96559881  0.76027575  0.29053760     0.10100
H723        H  0.08132389  0.82158075  0.26769746     0.14700
H724        H  0.00934872  0.69304332  0.29719588     0.00400
H725        H  0.99942862  0.76815686  0.16831637     0.15000
H726        H  0.93779017  0.82868869  0.26949287     0.14800
C727        C  0.00050524  0.25618985  0.87758929     0.86500
C728        C  0.04987118  0.25578694  0.86024111    -0.53700
C729        C  0.05376995  0.28426950  0.82362794     0.09500
C730        C  0.00647881  0.31032622  0.80728457     0.20400
C731        C  0.98894967  0.30766160  0.88738155    -0.54400
C732        C  0.99267329  0.33573667  0.85050020     0.09600
C733        C  0.96745047  0.24336596  0.83629326    -0.53900
C734        C  0.96745371  0.27349038  0.79984417     0.10100
H735        H  0.07961194  0.23562506  0.87621924     0.14700
H736        H  0.00974048  0.33348038  0.77737532     0.00400
H737        H  0.98029471  0.32087759  0.92071120     0.15000
H738        H  0.93982574  0.21828994  0.83940806     0.14800
C739        C  0.99634246  0.36373996  0.23917078     0.86500
C740        C  0.04233168  0.35609837  0.26822326    -0.53700
C741        C  0.05160673  0.31062881  0.28074755     0.09500
C742        C  0.01083867  0.27767248  0.26469338     0.20400
C743        C  0.99884824  0.32929735  0.19924847    -0.54400
C744        C  0.00662627  0.28424124  0.21271524     0.09600
C745        C  0.95819662  0.34636974  0.26827824    -0.53900
C746        C  0.96401742  0.30058944  0.28058036     0.10100
H747        H  0.06778691  0.38360329  0.27362625     0.14700
H748        H  0.01697944  0.24090731  0.27586025     0.00400
H749        H  0.99496120  0.33966649  0.16346936     0.15000
H750        H  0.92529147  0.36618455  0.27189689     0.14800
Zr751      Zr  0.19070074  0.21181892  0.30953233     2.17500
O752        O  0.11840549  0.17427415  0.32919993    -0.51300
O753        O  0.19331521  0.22325994  0.39333142    -0.74500
O754        O  0.19797762  0.12612601  0.30877377    -0.81300
O755        O  0.13195847  0.32786933  0.29762516    -0.83000
O756        O  0.26774439  0.09864473  0.28398600    -0.78600
O757        O  0.11389103  0.25190168  0.29060777    -0.90300
O758        O  0.26196605  0.25526286  0.42126404    -0.76200
O759        O  0.27261446  0.19843132  0.33178121    -0.85700
O760        O  0.22082721  0.28605664  0.33221130    -0.85400
O761        O  0.22507404  0.18149192  0.24165513    -0.72200
O762        O  0.17720046  0.26206433  0.24372161    -0.84300
Zr763      Zr  0.32478760  0.29257864  0.22052918     2.26400
Zr764      Zr  0.30768107  0.16978004  0.26432611     2.06300
Zr765      Zr  0.20883300  0.33561137  0.26675217     2.10000
Zr766      Zr  0.30274729  0.27281764  0.35346077     1.78800
O767        O  0.15309020  0.37113243  0.20908856    -0.93100
O768        O  0.35920644  0.22216216  0.39790570    -0.40900
O769        O  0.29155599  0.32354850  0.28815689    -0.77500
O770        O  0.33931932  0.24378318  0.28757495    -0.96200
O771        O  0.29439595  0.21884975  0.19819977    -0.89500
O772        O  0.24304041  0.30684960  0.19877573    -0.92400
C773        C  0.22050647  0.24016929  0.42626343     1.01400
C774        C  0.10182374  0.29543384  0.29173501     1.14300
C775        C  0.22682975  0.09242267  0.29911627     1.05100
O776        O  0.35915277  0.12631603  0.32018747    -0.94500
O777        O  0.38853366  0.17687403  0.24220394    -0.90300
O778        O  0.40197810  0.25151482  0.22161122    -0.83400
C779        C  0.41522754  0.20882834  0.22838966     1.11700
O780        O  0.14317936  0.18411970  0.16896558    -0.96500
Zr781      Zr  0.21241909  0.23292514  0.17697069     1.88900
O782        O  0.31970772  0.28240261  0.13667595    -0.73200
O783        O  0.31855268  0.11274157  0.20382136    -0.52400
O784        O  0.21661016  0.17036185  0.12087701    -0.97100
O785        O  0.15209145  0.28472921  0.13945917    -0.54300
O786        O  0.25152373  0.25087825  0.10775719    -0.73700
C787        C  0.29281147  0.26660739  0.10303595     0.98700
O788        O  0.39000041  0.34072081  0.20001604    -0.62500
O789        O  0.19647176  0.39768987  0.32210582    -0.57300
O790        O  0.31862953  0.37754337  0.22404050    -0.94000
O791        O  0.24789501  0.40608325  0.24516935    -0.92400
O792        O  0.29738813  0.34605027  0.39537241    -0.92800
O793        O  0.37664306  0.31234304  0.37226755    -0.91500
C794        C  0.28941000  0.41160987  0.23143784     1.17500
H795        H  0.20425561  0.30009649  0.35674428     0.33500
H796        H  0.37254441  0.24105184  0.29726126     0.44300
H797        H  0.23878485  0.32913573  0.17404827     0.37800
H798        H  0.21128130  0.15247698  0.23175469     0.34300
H799        H  0.34298098  0.19225350  0.40054582     0.26100
H800        H  0.32482964  0.13137134  0.17657747     0.32000
H801        H  0.24906361  0.15669422  0.12596675     0.37900
H802        H  0.26324364  0.35114643  0.39976061     0.32400
H803        H  0.22866212  0.40713523  0.33316419     0.31300
H804        H  0.14353339  0.40135821  0.22254273     0.33000
H805        H  0.12179043  0.27516629  0.15114684     0.31900
H806        H  0.39066160  0.31642161  0.34251697     0.35900
H807        H  0.41452972  0.33826252  0.22576679     0.28700
H808        H  0.12781556  0.15363304  0.35550718     0.32900
H809        H  0.12766614  0.18815556  0.19808341     0.35700
H810        H  0.18305779  0.42453961  0.30386692     0.28400
H811        H  0.40413694  0.32489199  0.17389227     0.41200
H812        H  0.36301474  0.09492701  0.30656820     0.31300
H813        H  0.38496674  0.21508559  0.37749386     0.38900
H814        H  0.15015524  0.27468589  0.10702474     0.30800
H815        H  0.34923217  0.09663524  0.21260937     0.30800
H816        H  0.10995355  0.15297218  0.30343063     0.31100
C817        C  0.99930304  0.20078769  0.00402551     0.17100
C818        C  0.95834966  0.20434879  0.02819341    -0.12000
C819        C  0.96219008  0.20711407  0.07592642    -0.12900
C820        C  0.00688809  0.20687468  0.09960253     0.18700
C821        C  0.04773936  0.20035584  0.07564187    -0.14900
C822        C  0.04391497  0.19713294  0.02789099    -0.13200
C823        C  0.01059141  0.22350760  0.14594693    -0.00400
C824        C  0.01025450  0.24723872  0.17986426    -0.33200
C825        C  0.99643496  0.21025745  0.95576847     0.01000
C826        C  0.99682867  0.22702158  0.91814084    -0.34900
H827        H  0.92382585  0.20847527  0.01007164     0.12000
H828        H  0.93062899  0.21323290  0.09414772     0.11900
H829        H  0.08254738  0.20119576  0.09341921     0.11700
H830        H  0.07586591  0.19530149  0.00947754     0.10800
C831        C  0.99180049  0.49769683  0.19475435     0.17100
C832        C  0.95366588  0.52258896  0.17267491    -0.12000
C833        C  0.95732613  0.57030039  0.16477177    -0.12900
C834        C  0.99858113  0.59294519  0.18051040     0.18700
C835        C  0.03766792  0.56727976  0.19966225    -0.14900
C836        C  0.03439246  0.51962416  0.20651262    -0.13200
C837        C  0.99804638  0.64222896  0.18694902    -0.00400
C838        C  0.99990384  0.68074505  0.20274754    -0.33200
C839        C  0.98703783  0.45056711  0.20867349     0.01000
C840        C  0.98860232  0.41146326  0.22307677    -0.34900
H841        H  0.92073816  0.50557602  0.16363081     0.12000
H842        H  0.92717789  0.58980508  0.14915278     0.11900
H843        H  0.06947958  0.58456799  0.21234703     0.11700
H844        H  0.06412141  0.50041979  0.22341842     0.10800
C845        C  0.01022709  0.57035987  0.87364383     0.17100
C846        C  0.02968673  0.53927446  0.90685746    -0.12000
C847        C  0.02346145  0.49165186  0.90101552    -0.12900
C848        C  0.99737583  0.47539783  0.86216669     0.18700
C849        C  0.97788642  0.50649368  0.82886905    -0.14900
C850        C  0.98433072  0.55415184  0.83462757    -0.13200
C851        C  0.99102346  0.42667081  0.85662358    -0.00400
C852        C  0.98916224  0.38522804  0.85335183    -0.33200
C853        C  0.01581788  0.61905858  0.88004476     0.01000
C854        C  0.01749468  0.66049751  0.88320598    -0.34900
H855        H  0.04921319  0.55190421  0.93728933     0.12000
H856        H  0.03845115  0.46759115  0.92691669     0.11900
H857        H  0.95772412  0.49393619  0.79874408     0.11700
H858        H  0.96900814  0.57829787  0.80894622     0.10800
C859        C  0.00373898  0.87719992  0.12490096     0.17100
C860        C  0.96147165  0.86860752  0.09871353    -0.12000
C861        C  0.96220204  0.85956613  0.05175163    -0.12900
C862        C  0.00526799  0.85893686  0.03067257     0.18700
C863        C  0.04696598  0.87080238  0.05612447    -0.14900
C864        C  0.04620291  0.87990695  0.10307935    -0.13200
C865        C  0.00772145  0.84003825  0.98513055    -0.00400
C866        C  0.00946682  0.81929955  0.94927924    -0.33200
C867        C  0.00518377  0.87090103  0.17388119     0.01000
C868        C  0.00597990  0.84994447  0.20968607    -0.34900
H869        H  0.92854460  0.86537706  0.11515768     0.12000
H870        H  0.92972470  0.85015654  0.03258805     0.11900
H871        H  0.08052563  0.87017410  0.04033386     0.11700
H872        H  0.07924478  0.88577564  0.12280381     0.10800
C873        C  0.02108073  0.97657048  0.37595693     0.17100
C874        C  0.99061123  0.95772280  0.34127776    -0.12000
C875        C  0.94170999  0.95610579  0.34633622    -0.12900
C876        C  0.92243005  0.97335946  0.38613386     0.18700
C877        C  0.95290667  0.99165871  0.42117434    -0.14900
C878        C  0.00198081  0.99313681  0.41618947    -0.13200
C879        C  0.87132137  0.97403685  0.38954484    -0.00400
C880        C  0.82825696  0.97525926  0.38740809    -0.33200
C881        C  0.07127788  0.98056911  0.36893845     0.01000
C882        C  0.11210365  0.98451705  0.35927442    -0.34900
H883        H  0.00457236  0.94487696  0.30993302     0.12000
H884        H  0.91879810  0.94204073  0.31880814     0.11900
H885        H  0.93864246  0.00554253  0.45193504     0.11700
H886        H  0.02484587  0.00793224  0.44333283     0.10800
C887        C  0.35721048  0.97104130  0.45216684     0.17100
C888        C  0.35666074  0.92996086  0.47775942    -0.12000
C889        C  0.35978301  0.93251489  0.52542996    -0.12900
C890        C  0.36381358  0.97606048  0.54683616     0.18700
C891        C  0.37438871  0.01515753  0.52126578    -0.14900
C892        C  0.37127018  0.01257396  0.47357709    -0.13200
C893        C  0.33820556  0.98374875  0.58675263    -0.00400
C894        C  0.30483627  0.99101729  0.60929865    -0.38000
C895        C  0.32523213  0.97472911  0.41232322     0.01000
C896        C  0.28970373  0.98006821  0.38777588    -0.34900
H897        H  0.34587628  0.89762986  0.46145799     0.12000
H898        H  0.35132048  0.90209094  0.54483777     0.11900
H899        H  0.37735584  0.04906770  0.53743426     0.11700
H900        H  0.37189833  0.04454804  0.45401473     0.10800
C901        C  0.59344098  0.99267213  0.48045343     0.17100
C902        C  0.58760432  0.95703419  0.51190012    -0.12000
C903        C  0.58617898  0.96815296  0.55817853    -0.12900
C904        C  0.59362972  0.01427574  0.57209720     0.18700
C905        C  0.58639181  0.05019427  0.53993455    -0.14900
C906        C  0.58724176  0.03927684  0.49355294    -0.13200
C907        C  0.63311018  0.01961810  0.60449258    -0.00400
C908        C  0.67403905  0.01676690  0.61831550    -0.33200
C909        C  0.62258060  0.98317052  0.44339061     0.01000
C910        C  0.65430203  0.97961481  0.41824181    -0.34900
H911        H  0.59195867  0.92081067  0.50206897     0.12000
H912        H  0.59048744  0.94005217  0.58293427     0.11900
H913        H  0.59088344  0.08615774  0.55038077     0.11700
H914        H  0.59140027  0.06707015  0.46931421     0.10800
C915        C  0.03656211  0.01928987  0.57563981     0.17100
C916        C  0.01061038  0.05250468  0.59946497    -0.12000
C917        C  0.96118415  0.05111713  0.59800408    -0.12900
C918        C  0.93714018  0.01643663  0.57277208     0.18700
C919        C  0.96292128  0.98392542  0.54779619    -0.14900
C920        C  0.01254949  0.98542817  0.54911480    -0.13200
C921        C  0.88717287  0.01112938  0.57797634    -0.00400
C922        C  0.84826393  0.00701879  0.59194147    -0.33200
C923        C  0.08750972  0.01704464  0.58341737     0.01000
C924        C  0.12849670  0.01495917  0.59805943    -0.34900
H925        H  0.02871365  0.07835268  0.62071139     0.12000
H926        H  0.94184479  0.07590843  0.61817263     0.11900
H927        H  0.94488176  0.95645306  0.52876702     0.11700
H928        H  0.03219629  0.95915987  0.53099745     0.10800
C929        C  0.20213967  0.98288373  0.98311495     0.17100
C930        C  0.20374721  0.00457382  0.02610750    -0.12000
C931        C  0.21045095  0.05259421  0.02984751    -0.12900
C932        C  0.21558358  0.07934680  0.99061934     0.18700
C933        C  0.21257516  0.05788249  0.94745881    -0.14900
C934        C  0.20567059  0.00982867  0.94368402    -0.13200
C935        C  0.23132234  0.12661039  0.99551017    -0.00400
C936        C  0.25371380  0.16155197  0.00162459    -0.33200
C937        C  0.20403409  0.93267435  0.98047743     0.01000
C938        C  0.21370946  0.89141534  0.98152948    -0.34900
H939        H  0.20208834  0.98402221  0.05692366     0.12000
H940        H  0.21393416  0.06843919  0.06349635     0.11900
H941        H  0.21795342  0.07771541  0.91698442     0.11700
H942        H  0.20546525  0.99339251  0.91031938     0.10800
C943        C  0.50827425  0.15675151  0.03890454     0.17100
C944        C  0.54016832  0.18097180  0.06791816    -0.12000
C945        C  0.58850516  0.17407862  0.06435275    -0.12900
C946        C  0.60488451  0.14259133  0.03213506     0.18700
C947        C  0.57309859  0.11551395  0.00554451    -0.14900
C948        C  0.52445824  0.12271016  0.00888343    -0.13200
C949        C  0.65312197  0.14459748  0.02163513    -0.00400
C950        C  0.69255392  0.15453376  0.01391147    -0.33200
C951        C  0.46021821  0.17286364  0.03488993     0.01000
C952        C  0.42180611  0.19133695  0.02985879    -0.34900
H953        H  0.52771318  0.20757020  0.09091339     0.12000
H954        H  0.61285406  0.19580708  0.08433060     0.11900
H955        H  0.58570209  0.09136920  0.98028156     0.11700
H956        H  0.49970239  0.10409061  0.98615066     0.10800
C957        C  0.55685429  0.79080173  0.99579920     0.17100
C958        C  0.53055261  0.82758018  0.97413204    -0.12000
C959        C  0.48098151  0.82889955  0.97361446    -0.12900
C960        C  0.45729270  0.79354392  0.99493249     0.18700
C961        C  0.48354080  0.75668099  0.01654584    -0.14900
C962        C  0.53313844  0.75522800  0.01683702    -0.13200
C963        C  0.40619965  0.79540157  0.99478510    -0.00400
C964        C  0.36345277  0.79823880  0.99416765    -0.33200
C965        C  0.60804182  0.78984188  0.99653887     0.01000
C966        C  0.65085266  0.78954380  0.99715616    -0.34900
H967        H  0.54836729  0.85538342  0.95788595     0.12000
H968        H  0.46117192  0.85770524  0.95696526     0.11900
H969        H  0.46571420  0.72921201  0.03329528     0.11700
H970        H  0.55297438  0.72659144  0.03374916     0.10800
C971        C  0.87661084  0.03833659  0.00279452     0.17100
C972        C  0.87878043  0.01397869  0.04439460    -0.12000
C973        C  0.86532145  0.96735632  0.04545965    -0.12900
C974        C  0.84938005  0.94485210  0.00494171     0.18700
C975        C  0.84927200  0.96856874  0.96312969    -0.14900
C976        C  0.86278473  0.01511300  0.96206429    -0.13200
C977        C  0.82925072  0.89915571  0.00648936    -0.00400
C978        C  0.80923368  0.86243702  0.00658940    -0.33200
C979        C  0.87712945  0.08858917  0.00303996     0.01000
C980        C  0.86168787  0.12821945  0.00354946    -0.34900
H981        H  0.88810125  0.03179519  0.07627933     0.12000
H982        H  0.86527623  0.94958661  0.07806000     0.11900
H983        H  0.83665949  0.95177675  0.93160133     0.11700
H984        H  0.85961929  0.03379799  0.92983274     0.10800
C985        C  0.51982990  0.92269252  0.75880147     0.17100
C986        C  0.48058510  0.94808597  0.77309175    -0.12000
C987        C  0.48541420  0.99451082  0.78614453    -0.12900
C988        C  0.52936736  0.01541030  0.78449708     0.18700
C989        C  0.56968868  0.98845527  0.77551501    -0.14900
C990        C  0.56489340  0.94190983  0.76260142    -0.13200
C991        C  0.52924033  0.06412671  0.77533297    -0.00400
C992        C  0.52376575  0.09949971  0.75378641    -0.33200
C993        C  0.51213036  0.88202070  0.73134569     0.01000
C994        C  0.50463613  0.85204605  0.70334296    -0.34900
H995        H  0.44554807  0.93357204  0.76978859     0.12000
H996        H  0.45389599  0.01540931  0.79203632     0.11900
H997        H  0.60362391  0.00462652  0.77321956     0.11700
H998        H  0.59535845  0.92254699  0.75124672     0.10800
C999        C  0.49885265  0.14625232  0.50439187     0.17100
C1000       C  0.53859121  0.15580130  0.48030877    -0.12000
C1001       C  0.53722422  0.14974337  0.43277581    -0.12900
C1002       C  0.49610516  0.13421031  0.40862529     0.18700
C1003       C  0.45617049  0.12479022  0.43265028    -0.14900
C1004       C  0.45758275  0.13066295  0.48036506    -0.13200
C1005       C  0.49481622  0.12960222  0.35921417    -0.00400
C1006       C  0.49542196  0.12940249  0.31786115    -0.33200
C1007       C  0.50051011  0.15320709  0.55349645     0.01000
C1008       C  0.50245754  0.16014192  0.59440882    -0.34900
H1009       H  0.57070965  0.16789557  0.49828624     0.12000
H1010       H  0.56826567  0.15733293  0.41488762     0.11900
H1011       H  0.42393770  0.11318138  0.41452604     0.11700
H1012       H  0.42646322  0.12332126  0.49843175     0.10800
C1013       C  0.49381388  0.80373549  0.45312057     0.17100
C1014       C  0.48246748  0.84665391  0.43129601    -0.12000
C1015       C  0.48770397  0.85206238  0.38404903    -0.12900
C1016       C  0.50445821  0.81468236  0.35793466     0.18700
C1017       C  0.51560728  0.77186796  0.37977272    -0.14900
C1018       C  0.51036548  0.76645966  0.42684644    -0.13200
C1019       C  0.50923837  0.81919240  0.30876362    -0.00400
C1020       C  0.51269411  0.81757950  0.26752947    -0.33200
C1021       C  0.48937395  0.79768587  0.50228297     0.01000
C1022       C  0.48776569  0.79081232  0.54328354    -0.34900
H1023       H  0.46961905  0.87596469  0.45076840     0.12000
H1024       H  0.47859503  0.88534649  0.36792291     0.11900
H1025       H  0.52825356  0.74245568  0.36031575     0.11700
H1026       H  0.51933479  0.73306186  0.44279746     0.10800
C1027       C  0.49112191  0.02009293  0.08873436     0.17100
C1028       C  0.45117314  0.99453662  0.07511158    -0.12000
C1029       C  0.45708004  0.94871427  0.06010604    -0.12900
C1030       C  0.50280063  0.92874084  0.05988181     0.18700
C1031       C  0.54241898  0.95664850  0.06657013    -0.14900
C1032       C  0.53654095  0.00252019  0.08118671    -0.13200
C1033       C  0.50854573  0.88111594  0.07294010    -0.00400
C1034       C  0.51043117  0.84801489  0.09787420    -0.33200
C1035       C  0.48696646  0.05790284  0.12004839     0.01000
C1036       C  0.48863543  0.08558626  0.15081686    -0.34900
H1037       H  0.41591046  0.00794866  0.08095836     0.12000
H1038       H  0.42627171  0.92711462  0.05542448     0.11900
H1039       H  0.57789183  0.94127985  0.06709284     0.11700
H1040       H  0.56757847  0.02219117  0.09178174     0.10800
C1041       C  0.91722700  0.49145083  0.02741612     0.17100
C1042       C  0.92226805  0.53675302  0.01112619    -0.12000
C1043       C  0.92055065  0.54434852  0.96402405    -0.12900
C1044       C  0.91282765  0.50656315  0.93441720     0.18700
C1045       C  0.92021022  0.46103629  0.95103955    -0.14900
C1046       C  0.92196820  0.45337481  0.99806321    -0.13200
C1047       C  0.87545554  0.51253099  0.89962918    -0.00400
C1048       C  0.83516202  0.51258391  0.88393492    -0.33200
C1049       C  0.88865696  0.48581140  0.06518584     0.01000
C1050       C  0.85710385  0.48333554  0.09038427    -0.34900
H1051       H  0.91911280  0.56645116  0.03377136     0.12000
H1052       H  0.91561094  0.57974346  0.95137320     0.11900
H1053       H  0.91479554  0.43149065  0.92831559     0.11700
H1054       H  0.91846252  0.41816080  0.01046225     0.10800
C1055       C  0.49108556  0.47892503  0.12936397     0.17100
C1056       C  0.52175835  0.47872781  0.16907799    -0.12000
C1057       C  0.57100280  0.47677870  0.16607799    -0.12900
C1058       C  0.59045694  0.47492966  0.12329918     0.18700
C1059       C  0.55985259  0.47408240  0.08340632    -0.14900
C1060       C  0.51036719  0.47603332  0.08642436    -0.13200
C1061       C  0.64167446  0.47526316  0.12112215    -0.00400
C1062       C  0.68465123  0.47682041  0.12407875    -0.33200
C1063       C  0.44023462  0.48334049  0.13353316     0.01000
C1064       C  0.39903083  0.48752211  0.14247505    -0.34900
H1065       H  0.50757336  0.48074364  0.20249623     0.12000
H1066       H  0.59397782  0.47733833  0.19722964     0.11900
H1067       H  0.57416798  0.47253309  0.05003398     0.11700
H1068       H  0.48727256  0.47592880  0.05534234     0.10800
C1069       C  0.57251600  0.50057159  0.93449504     0.17100
C1070       C  0.54753385  0.45895045  0.93218404    -0.12000
C1071       C  0.49795615  0.45992828  0.93302056    -0.12900
C1072       C  0.47281257  0.50256825  0.93607480     0.18700
C1073       C  0.49799014  0.54396306  0.94052883    -0.14900
C1074       C  0.54754633  0.54299038  0.93965105    -0.13200
C1075       C  0.42160145  0.50454782  0.92801858    -0.00400
C1076       C  0.38023722  0.50688245  0.91402005    -0.33200
C1077       C  0.62231491  0.50028982  0.92541058     0.01000
C1078       C  0.66109236  0.50031725  0.91012032    -0.34900
H1079       H  0.56613695  0.42593581  0.92758937     0.12000
H1080       H  0.47911076  0.42765192  0.92903976     0.11900
H1081       H  0.47915580  0.57723215  0.94240591     0.11700
H1082       H  0.56613297  0.57552498  0.94086724     0.10800
C1083       C  0.15403568  0.48512916  0.05815044     0.17100
C1084       C  0.14588484  0.45166749  0.02391504    -0.12000
C1085       C  0.13955800  0.46584563  0.97832746    -0.12900
C1086       C  0.14259180  0.51316888  0.96756772     0.18700
C1087       C  0.14104599  0.54668410  0.00224409    -0.14900
C1088       C  0.14672620  0.53254679  0.04785476    -0.13200
C1089       C  0.16846467  0.52394123  0.92893719    -0.00400
C1090       C  0.20271050  0.52570789  0.90700209    -0.33200
C1091       C  0.18653362  0.47354333  0.09620637     0.01000
C1092       C  0.22237790  0.47194729  0.12067826    -0.34900
H1093       H  0.15165672  0.41491682  0.03147937     0.12000
H1094       H  0.14079687  0.43963858  0.95167514     0.11900
H1095       H  0.14355661  0.58337429  0.99431789     0.11700
H1096       H  0.15314328  0.55871864  0.07414853     0.10800
C1097       C  0.05058234  0.71113423  0.50874226     0.17100
C1098       C  0.01967497  0.72583302  0.47177589    -0.12000
C1099       C  0.97049714  0.72333206  0.47435956    -0.12900
C1100       C  0.95173586  0.70601267  0.51387709     0.18700
C1101       C  0.98262944  0.69201203  0.55115327    -0.14900
C1102       C  0.03183388  0.69453658  0.54857686    -0.13200
C1103       C  0.90096970  0.70168377  0.51552479    -0.00400
C1104       C  0.85836030  0.69827198  0.51513350    -0.33200
C1105       C  0.10139087  0.71139762  0.50530901     0.01000
C1106       C  0.14400456  0.70897649  0.50346121    -0.34900
H1107       H  0.03357620  0.73866533  0.44075354     0.12000
H1108       H  0.94711815  0.73436546  0.44530700     0.11900
H1109       H  0.96872958  0.67864483  0.58195614     0.11700
H1110       H  0.05526177  0.68300089  0.57741079     0.10800
C1111       C  0.31325008  0.52456925  0.53419703     0.17100
C1112       C  0.30560188  0.49953740  0.57395198    -0.12000
C1113       C  0.30471641  0.45077884  0.57261326    -0.12900
C1114       C  0.31144770  0.42697220  0.53156160     0.18700
C1115       C  0.32138850  0.45199279  0.49253169    -0.14900
C1116       C  0.32237710  0.50062481  0.49387567    -0.13200
C1117       C  0.29755787  0.37930090  0.52659066    -0.00400
C1118       C  0.27335218  0.34584725  0.51940322    -0.33200
C1119       C  0.30517500  0.57426646  0.53252360     0.01000
C1120       C  0.29256992  0.61442172  0.52680379    -0.34900
H1121       H  0.29777672  0.51769936  0.60515483     0.12000
H1122       H  0.29583775  0.43190258  0.60268377     0.11900
H1123       H  0.32530727  0.43414803  0.46029810     0.11700
H1124       H  0.32754425  0.51964467  0.46276529     0.10800
C1125       C  0.66832110  0.53256990  0.51618637     0.17100
C1126       C  0.65027270  0.51086955  0.47601015    -0.12000
C1127       C  0.63896875  0.46369747  0.47646357    -0.12900
C1128       C  0.64552578  0.43794623  0.51711088     0.18700
C1129       C  0.66134711  0.46025713  0.55778791    -0.14900
C1130       C  0.67263876  0.50745846  0.55734225    -0.13200
C1131       C  0.64703497  0.38777609  0.51496593    -0.00400
C1132       C  0.66298389  0.34854000  0.51201146    -0.33200
C1133       C  0.68651865  0.57896188  0.51425929     0.01000
C1134       C  0.70472933  0.61641015  0.51202353    -0.34900
H1135       H  0.64713359  0.52977427  0.44391435     0.12000
H1136       H  0.62797827  0.44664654  0.44458325     0.11900
H1137       H  0.66777819  0.44051436  0.58921149     0.11700
H1138       H  0.68689188  0.52371253  0.58857244     0.10800
C1139       C  0.01310125  0.36340242  0.48094513     0.17100
C1140       C  0.99101799  0.37751386  0.52020967    -0.12000
C1141       C  0.94255469  0.37129607  0.52267772    -0.12900
C1142       C  0.91650280  0.35084492  0.48593576     0.18700
C1143       C  0.93791500  0.34055127  0.44525785    -0.14900
C1144       C  0.98624526  0.34704413  0.44267967    -0.13200
C1145       C  0.86989888  0.33506622  0.49212514    -0.00400
C1146       C  0.83170842  0.31992438  0.49812316    -0.33200
C1147       C  0.06292043  0.35411432  0.48419390     0.01000
C1148       C  0.10186809  0.33684276  0.49017707    -0.34900
H1149       H  0.01181016  0.38955891  0.55017434     0.12000
H1150       H  0.92620403  0.37929097  0.55427642     0.11900
H1151       H  0.91833941  0.32437269  0.41678686     0.11700
H1152       H  0.00328018  0.33542749  0.41244042     0.10800
loop_ 
_geom_bond_atom_site_label_1 
_geom_bond_atom_site_label_2 
_geom_bond_distance 
_geom_bond_site_symmetry_2 
_ccdc_geom_bond_type 
Zr1           O2   2.441       .  S
Zr1           O3   2.469       .  S
Zr1           O4   2.529       .  S
Zr1           O7   2.490       .  S
Zr1           O9   2.390       .  S
Zr1          O10   2.404       .  S
Zr1          O11   2.413       .  S
Zr1          O12   2.417       .  S
O2           H58   0.990       .  S
O2           H66   0.990       .  S
O3           C23   1.290       .  A
O4           C25   1.302       .  A
O5          Zr15   2.407       .  S
O5           C24   1.280       .  A
O6          Zr14   2.432       .  S
O6           C25   1.283       .  A
O7           C24   1.296       .  A
O8          Zr16   2.417       .  S
O8           C23   1.276       .  A
O9          Zr14   2.397       .  S
O9          Zr16   2.395       .  S
O10         Zr15   2.401       .  S
O10         Zr16   2.369       .  S
O10          H45   0.966       .  S
O11         Zr14   2.404       .  S
O11         Zr31   2.383       .  S
O11          H48   0.965       .  S
O12         Zr15   2.416       .  S
O12         Zr31   2.390       .  S
Zr13         O38   2.440       .  S
Zr13         O32   2.455       .  S
Zr13         O40   2.482       .  S
Zr13         O28   2.473       .  S
Zr13         O19   2.405       .  S
Zr13         O20   2.418       .  S
Zr13         O21   2.396       .  S
Zr13         O22   2.402       .  S
Zr14         O33   2.438       .  S
Zr14         O26   2.435       .  S
Zr14         O27   2.424       .  S
Zr14         O20   2.405       .  S
Zr14         O21   2.386       .  S
Zr15         O17   2.437       .  S
Zr15         O39   2.440       .  S
Zr15         O41   2.472       .  S
Zr15         O19   2.389       .  S
Zr15         O22   2.382       .  S
Zr16         O42   2.435       .  S
Zr16         O43   2.436       .  S
Zr16         O18   2.437       .  S
Zr16         O19   2.384       .  S
Zr16         O20   2.405       .  S
O17          H54   0.990       .  S
O18          H49   0.991       .  S
O18          H63   0.989       .  S
O20          H46   0.966       .  S
O21         Zr31   2.379       .  S
O22         Zr31   2.389       .  S
O22          H47   0.966       .  S
C23         C477   1.479       .  S
C24         C146   1.483       .  S
C25         C705   1.507       .  S
O26          H62   0.989       .  S
O27          C29   1.282       .  A
O28          C29   1.292       .  A
C29         C591   1.482       .  S
O30         Zr31   2.437       .  S
O30          H59   0.990       .  S
Zr31         O34   2.435       .  S
Zr31         O35   2.432       .  S
Zr31         O36   2.415       .  S
O32          C37   1.283       .  A
O33          H50   0.990       .  S
O33          H65   0.990       .  S
O34          H51   0.990       .  S
O35          H55   0.989       .  S
O35          H64   0.989       .  S
O36          C37   1.270       .  A
C37          C98   1.472       .  S
O38          H57   0.990       .  S
O38          H61   0.990       .  S
O39          H53   0.990       .  S
O39          H60   0.990       .  S
O40          C44   1.295       .  A
O41          C44   1.290       .  A
O42          H52   0.990       .  S
O43          H56   0.990       .  S
C44         C194   1.515       .  S
C67          C68   1.518       .  S
C67          C73   1.526       .  S
C67          C71   1.532       .  S
C67        C1132   1.468       .  S
C68          H75   1.087       .  S
C68          C69   1.371       .  D
C69         C433   1.491       .  S
C69          C70   1.557       .  S
C70          C74   1.568       .  S
C70          C72   1.530       .  S
C70          H76   1.111       .  S
C71          H77   1.088       .  S
C71          C72   1.353       .  D
C72        C1146   1.430       .  S
C73          H78   1.087       .  S
C73          C74   1.373       .  D
C74         C386   1.492       .  S
C79          C80   1.515       .  S
C79          C85   1.514       .  S
C79          C83   1.526       .  S
C79        C1148   1.455       .  S
C80          H87   1.087       .  S
C80          C81   1.370       .  D
C81         C234   1.503       .  S
C81          C82   1.569       .  S
C82          C86   1.576       .  S
C82          C84   1.537       .  S
C82          H88   1.110       .  S
C83          H89   1.088       .  S
C83          C84   1.359       .  D
C84        C1118   1.438       .  S
C85          H90   1.088       .  S
C85          C86   1.367       .  D
C86         C773   1.493       .  S
C91          C92   1.516       .  S
C91          C97   1.517       .  S
C91          C95   1.543       .  S
C91        C1134   1.472       .  S
C92          H99   1.085       .  S
C92          C93   1.370       .  D
C93         C673   1.482       .  S
C93          C94   1.551       .  S
C94          C98   1.558       .  S
C94          C96   1.534       .  S
C94         H100   1.111       .  S
C95         H101   1.087       .  S
C95          C96   1.366       .  D
C96        C1104   1.450       .  S
C97         H102   1.085       .  S
C97          C98   1.366       .  D
C103        C104   1.520       .  S
C103        C109   1.506       .  S
C103        C107   1.537       .  S
C103       C1120   1.467       .  S
C104        H111   1.088       .  S
C104        C105   1.370       .  D
C105        C545   1.471       .  S
C105        C106   1.559       .  S
C106        C110   1.557       .  S
C106        C108   1.538       .  S
C106        H112   1.111       .  S
C107        H113   1.087       .  S
C107        C108   1.362       .  D
C108       C1106   1.449       .  S
C109        H114   1.087       .  S
C109        C110   1.370       .  D
C110        C313   1.483       .  S
C115        C116   1.529       .  S
C115        C121   1.523       .  S
C115        C119   1.540       .  S
C115       C1076   1.481       .  S
C116        H123   1.087       .  S
C116        C117   1.368       .  D
C117        C551   1.501       .  S
C117        C118   1.560       .  S
C118        C122   1.567       .  S
C118        C120   1.526       .  S
C118        H124   1.111       .  S
C119        H125   1.086       .  S
C119        C120   1.374       .  D
C120       C1090   1.435       .  S
C121        H126   1.087       .  S
C121        C122   1.362       .  D
C122        C247   1.497       .  S
C127        C128   1.518       .  S
C127        C133   1.515       .  S
C127        C131   1.545       .  S
C127       C1064   1.483       .  S
C128        H135   1.087       .  S
C128        C129   1.369       .  D
C129        C794   1.499       .  S
C129        C130   1.563       .  S
C130        C134   1.563       .  S
C130        C132   1.523       .  S
C130        H136   1.111       .  S
C131        H137   1.086       .  S
C131        C132   1.373       .  D
C132       C1092   1.434       .  S
C133        H138   1.085       .  S
C133        C134   1.374       .  D
C134        C301   1.511       .  S
C139        C140   1.519       .  S
C139        C145   1.522       .  S
C139        C143   1.546       .  S
C139       C1078   1.479       .  S
C140        H147   1.088       .  S
C140        C141   1.361       .  D
C141        C445   1.482       .  S
C141        C142   1.558       .  S
C142        C146   1.552       .  S
C142        C144   1.520       .  S
C142        H148   1.111       .  S
C143        H149   1.086       .  S
C143        C144   1.377       .  D
C144       C1048   1.433       .  S
C145        H150   1.088       .  S
C145        C146   1.364       .  D
C151        C152   1.513       .  S
C151        C157   1.513       .  S
C151        C155   1.550       .  S
C151       C1050   1.457       .  S
C152        H159   1.088       .  S
C152        C153   1.361       .  D
C153        C365   1.496       .  S
C153        C154   1.574       .  S
C154        C158   1.567       .  S
C154        C156   1.537       .  S
C154        H160   1.111       .  S
C155        H161   1.086       .  S
C155        C156   1.373       .  D
C156       C1062   1.456       .  S
C157        H162   1.088       .  S
C157        C158   1.356       .  D
C158        C660   1.489       .  S
C163        C164   1.510       .  S
C163        C169   1.515       .  S
C163        C167   1.563       .  S
C163       C1034   1.455       .  S
C164        H171   1.088       .  S
C164        C165   1.357       .  D
C165        C300   1.484       .  S
C165        C166   1.564       .  S
C166        C170   1.583       .  S
C166        C168   1.523       .  S
C166        H172   1.111       .  S
C167        H173   1.086       .  S
C167        C168   1.373       .  D
C168       C1020   1.461       .  S
C169        H174   1.089       .  S
C169        C170   1.360       .  D
C170        C661   1.491       .  S
C175        C176   1.511       .  S
C175        C181   1.513       .  S
C175        C179   1.552       .  S
C175       C1036   1.456       .  S
C176        H183   1.088       .  S
C176        C177   1.359       .  D
C177        C371   1.480       .  S
C177        C178   1.560       .  S
C178        C182   1.563       .  S
C178        C180   1.530       .  S
C178        H184   1.111       .  S
C179        H185   1.086       .  S
C179        C180   1.371       .  D
C180       C1006   1.451       .  S
C181        H186   1.089       .  S
C181        C182   1.362       .  D
C182        C779   1.476       .  S
C187        C188   1.537       .  S
C187        C193   1.533       .  S
C187        C191   1.542       .  S
C187       C1022   1.495       .  S
C188        H195   1.087       .  S
C188        C189   1.373       .  D
C189        C547   1.523       .  S
C189        C190   1.573       .  S
C190        C194   1.569       .  S
C190        C192   1.524       .  S
C190        H196   1.111       .  S
C191        H197   1.087       .  S
C191        C192   1.368       .  D
C192        C994   1.432       .  S
C193        H198   1.087       .  S
C193        C194   1.369       .  D
C199        C200   1.525       .  S
C199        C205   1.508       .  S
C199        C203   1.539       .  S
C199       C1008   1.479       .  S
C200        H207   1.087       .  S
C200        C201   1.380       .  D
C201        C432   1.511       .  S
C201        C202   1.557       .  S
C202        C206   1.567       .  S
C202        C204   1.522       .  S
C202        H208   1.111       .  S
C203        H209   1.087       .  S
C203        C204   1.369       .  D
C204        C992   1.429       .  S
C205        H210   1.086       .  S
C205        C206   1.366       .  D
C206        C235   1.494       .  S
Zr211       O212   2.441       .  S
Zr211       O213   2.496       .  S
Zr211       O214   2.456       .  S
Zr211       O217   2.475       .  S
Zr211       O219   2.389       .  S
Zr211       O220   2.386       .  S
Zr211       O221   2.431       .  S
Zr211       O222   2.408       .  S
O212        H268   0.990       .  S
O212        H276   0.990       .  S
O213        C233   1.295       .  A
O214        C235   1.291       .  A
O215       Zr225   2.440       .  S
O215        C234   1.289       .  A
O216       Zr224   2.451       .  S
O216        C235   1.285       .  A
O217        C234   1.289       .  A
O218       Zr226   2.421       .  S
O218        C233   1.279       .  A
O219       Zr224   2.417       .  S
O219       Zr226   2.379       .  S
O220       Zr225   2.393       .  S
O220       Zr226   2.383       .  S
O220        H255   0.965       .  S
O221       Zr224   2.407       .  S
O221       Zr241   2.387       .  S
O221        H258   0.964       .  S
O222       Zr225   2.375       .  S
O222       Zr241   2.385       .  S
Zr223       O248   2.442       .  S
Zr223       O242   2.509       .  S
Zr223       O250   2.482       .  S
Zr223       O238   2.483       .  S
Zr223       O229   2.413       .  S
Zr223       O230   2.434       .  S
Zr223       O231   2.389       .  S
Zr223       O232   2.395       .  S
Zr224       O243   2.437       .  S
Zr224       O236   2.435       .  S
Zr224       O237   2.468       .  S
Zr224       O230   2.397       .  S
Zr224       O231   2.398       .  S
Zr225       O227   2.435       .  S
Zr225       O249   2.441       .  S
Zr225       O251   2.422       .  S
Zr225       O229   2.390       .  S
Zr225       O232   2.406       .  S
Zr226       O252   2.435       .  S
Zr226       O253   2.435       .  S
Zr226       O228   2.438       .  S
Zr226       O229   2.401       .  S
Zr226       O230   2.386       .  S
O227        H264   0.990       .  S
O228        H259   0.990       .  S
O228        H273   0.990       .  S
O230        H256   0.963       .  S
O231       Zr241   2.393       .  S
O232       Zr241   2.384       .  S
O232        H257   0.966       .  S
C233        C603   1.491       .  S
O236        H272   0.990       .  S
O237        C239   1.296       .  A
O238        C239   1.290       .  A
C239        C518   1.513       .  S
O240       Zr241   2.438       .  S
O240        H269   0.990       .  S
Zr241       O244   2.435       .  S
Zr241       O245   2.436       .  S
Zr241       O246   2.413       .  S
O242        C247   1.298       .  A
O243        H260   0.990       .  S
O243        H275   0.990       .  S
O244        H261   0.990       .  S
O245        H265   0.990       .  S
O245        H274   0.990       .  S
O246        C247   1.277       .  A
O248        H267   0.990       .  S
O248        H271   0.990       .  S
O249        H263   0.990       .  S
O249        H270   0.990       .  S
O250        C254   1.296       .  A
O251        C254   1.279       .  A
O252        H262   0.990       .  S
O253        H266   0.990       .  S
C254        C729   1.482       .  S
Zr277       O278   2.444       .  S
Zr277       O279   2.468       .  S
Zr277       O280   2.438       .  S
Zr277       O283   2.421       .  S
Zr277       O285   2.386       .  S
Zr277       O286   2.398       .  S
Zr277       O287   2.417       .  S
Zr277       O288   2.409       .  S
O278        H334   0.991       .  S
O278        H342   0.990       .  S
O279        C299   1.284       .  A
O280        C301   1.287       .  A
O281       Zr291   2.504       .  S
O281        C300   1.301       .  A
O282       Zr290   2.512       .  S
O282        C301   1.298       .  A
O283        C300   1.279       .  A
O284       Zr292   2.396       .  S
O284        C299   1.273       .  A
O285       Zr290   2.421       .  S
O285       Zr292   2.392       .  S
O286       Zr291   2.399       .  S
O286       Zr292   2.373       .  S
O286        H321   0.965       .  S
O287       Zr290   2.415       .  S
O287       Zr307   2.373       .  S
O287        H324   0.962       .  S
O288       Zr291   2.379       .  S
O288       Zr307   2.372       .  S
Zr289       O314   2.445       .  S
Zr289       O308   2.468       .  S
Zr289       O316   2.433       .  S
Zr289       O304   2.445       .  S
Zr289       O295   2.399       .  S
Zr289       O296   2.413       .  S
Zr289       O297   2.373       .  S
Zr289       O298   2.396       .  S
Zr290       O309   2.435       .  S
Zr290       O302   2.434       .  S
Zr290       O303   2.525       .  S
Zr290       O296   2.406       .  S
Zr290       O297   2.410       .  S
Zr291       O293   2.436       .  S
Zr291       O315   2.442       .  S
Zr291       O317   2.496       .  S
Zr291       O295   2.382       .  S
Zr291       O298   2.419       .  S
Zr292       O318   2.434       .  S
Zr292       O319   2.434       .  S
Zr292       O294   2.439       .  S
Zr292       O295   2.374       .  S
Zr292       O296   2.352       .  S
O293        H330   0.990       .  S
O294        H325   0.990       .  S
O294        H339   0.990       .  S
O296        H322   0.959       .  S
O297       Zr307   2.394       .  S
O298       Zr307   2.378       .  S
O298        H323   0.966       .  S
C299        C501   1.477       .  S
O302        H338   0.990       .  S
O303        C305   1.302       .  A
O304        C305   1.287       .  A
C305        C717   1.505       .  S
O306       Zr307   2.439       .  S
O306        H335   0.990       .  S
Zr307       O310   2.436       .  S
Zr307       O311   2.441       .  S
Zr307       O312   2.377       .  S
O308        C313   1.285       .  A
O309        H326   0.990       .  S
O309        H341   0.990       .  S
O310        H327   0.990       .  S
O311        H331   0.990       .  S
O311        H340   0.990       .  S
O312        C313   1.275       .  A
O314        H333   0.990       .  S
O314        H337   0.991       .  S
O315        H329   0.990       .  S
O315        H336   0.989       .  S
O316        C320   1.287       .  A
O317        C320   1.294       .  A
O318        H328   0.989       .  S
O319        H332   0.990       .  S
C320        C627   1.512       .  S
Zr343       O344   2.439       .  S
Zr343       O345   2.480       .  S
Zr343       O346   2.482       .  S
Zr343       O349   2.441       .  S
Zr343       O351   2.376       .  S
Zr343       O352   2.386       .  S
Zr343       O353   2.411       .  S
Zr343       O354   2.418       .  S
O344        H400   0.990       .  S
O344        H408   0.990       .  S
O345        C365   1.296       .  A
O346        C367   1.295       .  A
O347       Zr357   2.438       .  S
O347        C366   1.283       .  A
O348       Zr356   2.461       .  S
O348        C367   1.287       .  A
O349        C366   1.282       .  A
O350       Zr358   2.409       .  S
O350        C365   1.275       .  A
O351       Zr356   2.391       .  S
O351       Zr358   2.394       .  S
O352       Zr357   2.403       .  S
O352       Zr358   2.379       .  S
O352        H387   0.966       .  S
O353       Zr356   2.395       .  S
O353       Zr373   2.394       .  S
O353        H390   0.963       .  S
O354       Zr357   2.391       .  S
O354       Zr373   2.402       .  S
Zr355       O380   2.437       .  S
Zr355       O374   2.478       .  S
Zr355       O382   2.473       .  S
Zr355       O370   2.473       .  S
Zr355       O361   2.401       .  S
Zr355       O362   2.424       .  S
Zr355       O363   2.379       .  S
Zr355       O364   2.386       .  S
Zr356       O375   2.436       .  S
Zr356       O368   2.437       .  S
Zr356       O369   2.422       .  S
Zr356       O362   2.408       .  S
Zr356       O363   2.408       .  S
Zr357       O359   2.434       .  S
Zr357       O381   2.437       .  S
Zr357       O383   2.438       .  S
Zr357       O361   2.392       .  S
Zr357       O364   2.399       .  S
Zr358       O384   2.436       .  S
Zr358       O385   2.435       .  S
Zr358       O360   2.438       .  S
Zr358       O361   2.388       .  S
Zr358       O362   2.392       .  S
O359        H396   0.990       .  S
O360        H391   0.991       .  S
O360        H405   0.990       .  S
O362        H388   0.965       .  S
O363       Zr373   2.381       .  S
O364       Zr373   2.384       .  S
O364        H389   0.966       .  S
C366        C746   1.471       .  S
C367        C489   1.503       .  S
O368        H404   0.990       .  S
O369        C371   1.285       .  A
O370        C371   1.289       .  A
O372       Zr373   2.436       .  S
O372        H401   0.990       .  S
Zr373       O376   2.437       .  S
Zr373       O377   2.441       .  S
Zr373       O378   2.415       .  S
O374        C379   1.295       .  A
O375        H392   0.990       .  S
O375        H407   0.990       .  S
O376        H393   0.990       .  S
O377        H397   0.990       .  S
O377        H406   0.990       .  S
O378        C379   1.276       .  A
C379        C620   1.499       .  S
O380        H399   0.990       .  S
O380        H403   0.990       .  S
O381        H395   0.990       .  S
O381        H402   0.990       .  S
O382        C386   1.293       .  A
O383        C386   1.283       .  A
O384        H394   0.990       .  S
O385        H398   0.990       .  S
Zr409       O410   2.446       .  S
Zr409       O411   2.474       .  S
Zr409       O412   2.439       .  S
Zr409       O415   2.418       .  S
Zr409       O417   2.366       .  S
Zr409       O418   2.388       .  S
Zr409       O419   2.422       .  S
Zr409       O420   2.406       .  S
O410        H466   0.990       .  S
O410        H474   0.991       .  S
O411        C431   1.289       .  A
O412        C433   1.285       .  A
O413       Zr423   2.507       .  S
O413        C432   1.296       .  A
O414       Zr422   2.504       .  S
O414        C433   1.298       .  A
O415        C432   1.284       .  A
O416       Zr424   2.398       .  S
O416        C431   1.273       .  A
O417       Zr422   2.409       .  S
O417       Zr424   2.391       .  S
O418       Zr423   2.427       .  S
O418       Zr424   2.382       .  S
O418        H453   0.966       .  S
O419       Zr422   2.400       .  S
O419       Zr439   2.373       .  S
O419        H456   0.960       .  S
O420       Zr423   2.386       .  S
O420       Zr439   2.389       .  S
Zr421       O446   2.444       .  S
Zr421       O440   2.483       .  S
Zr421       O448   2.450       .  S
Zr421       O436   2.465       .  S
Zr421       O427   2.399       .  S
Zr421       O428   2.422       .  S
Zr421       O429   2.380       .  S
Zr421       O430   2.392       .  S
Zr422       O441   2.436       .  S
Zr422       O434   2.437       .  S
Zr422       O435   2.477       .  S
Zr422       O428   2.416       .  S
Zr422       O429   2.425       .  S
Zr423       O425   2.437       .  S
Zr423       O447   2.438       .  S
Zr423       O449   2.513       .  S
Zr423       O427   2.378       .  S
Zr423       O430   2.417       .  S
Zr424       O450   2.436       .  S
Zr424       O451   2.435       .  S
Zr424       O426   2.442       .  S
Zr424       O427   2.373       .  S
Zr424       O428   2.383       .  S
O425        H462   0.990       .  S
O426        H457   0.990       .  S
O426        H471   0.990       .  S
O428        H454   0.959       .  S
O429       Zr439   2.394       .  S
O430       Zr439   2.382       .  S
O430        H455   0.965       .  S
C431        C596   1.479       .  S
O434        H470   0.990       .  S
O435        C437   1.292       .  A
O436        C437   1.291       .  A
C437        C734   1.495       .  S
O438       Zr439   2.436       .  S
O438        H467   0.990       .  S
Zr439       O442   2.435       .  S
Zr439       O443   2.439       .  S
Zr439       O444   2.405       .  S
O440        C445   1.291       .  A
O441        H458   0.990       .  S
O441        H473   0.990       .  S
O442        H459   0.989       .  S
O443        H463   0.990       .  S
O443        H472   0.990       .  S
O444        C445   1.274       .  A
O446        H465   0.991       .  S
O446        H469   0.991       .  S
O447        H461   0.990       .  S
O447        H468   0.990       .  S
O448        C452   1.289       .  A
O449        C452   1.300       .  A
O450        H460   0.990       .  S
O451        H464   0.989       .  S
C452        C494   1.498       .  S
C475        C476   1.516   1_554  S
C475        C481   1.512       .  S
C475        C479   1.542       .  S
C475        C978   1.476       .  S
C476        H483   1.089       .  S
C476        C477   1.367       .  D
C477        C478   1.571   1_556  S
C478        C482   1.557       .  S
C478        C480   1.533   1_554  S
C478        H484   1.111       .  S
C479        H485   1.086   1_554  S
C479        C480   1.366   1_554  D
C480        C966   1.448       .  S
C481        H486   1.085       .  S
C481        C482   1.372       .  D
C482        C659   1.496       .  S
C487        C488   1.527       .  S
C487        C493   1.521   1_554  S
C487        C491   1.531       .  S
C487        C980   1.469       .  S
C488        H495   1.084       .  S
C488        C489   1.373       .  D
C489        C490   1.571       .  S
C490        C494   1.563   1_554  S
C490        C492   1.529       .  S
C490        H496   1.111       .  S
C491        H497   1.088       .  S
C491        C492   1.351       .  D
C492        C950   1.424       .  S
C493        H498   1.084       .  S
C493        C494   1.370       .  D
C499        C500   1.515   1_556  S
C499        C505   1.522       .  S
C499        C503   1.537       .  S
C499        C938   1.471       .  S
C500        H507   1.083       .  S
C500        C501   1.369       .  D
C501        C502   1.549   1_554  S
C502        C506   1.554       .  S
C502        C504   1.536       .  S
C502        H508   1.111   1_556  S
C503        H509   1.087       .  S
C503        C504   1.361       .  D
C504        C964   1.446       .  S
C505        H510   1.084       .  S
C505        C506   1.372       .  D
C506        C559   1.473       .  S
C511        C512   1.511       .  S
C511        C517   1.514   1_554  S
C511        C515   1.527       .  S
C511        C952   1.451       .  S
C512        H519   1.088       .  S
C512        C513   1.367       .  D
C513        C787   1.504       .  S
C513        C514   1.583       .  S
C514        C518   1.583   1_554  S
C514        C516   1.540       .  S
C514        H520   1.110       .  S
C515        H521   1.088       .  S
C515        C516   1.357       .  D
C516        C936   1.442       .  S
C517        H522   1.087       .  S
C517        C518   1.370       .  D
Zr523       O524   2.439       .  S
Zr523       O525   2.455       .  S
Zr523       O526   2.478       .  S
Zr523       O529   2.481       .  S
Zr523       O531   2.385       .  S
Zr523       O532   2.397       .  S
Zr523       O533   2.416       .  S
Zr523       O534   2.407       .  S
O524        H580   0.990       .  S
O524        H588   0.990       .  S
O525        C545   1.286       .  A
O526        C547   1.293       .  A
O527       Zr537   2.423       .  S
O527        C546   1.283       .  A
O528       Zr536   2.506       .  S
O528        C547   1.297       .  A
O529        C546   1.294       .  A
O530       Zr538   2.413       .  S
O530        C545   1.276       .  A
O531       Zr536   2.388       .  S
O531       Zr538   2.390       .  S
O532       Zr537   2.393       .  S
O532       Zr538   2.376       .  S
O532        H567   0.966       .  S
O533       Zr536   2.399       .  S
O533       Zr553   2.390       .  S
O533        H570   0.965       .  S
O534       Zr537   2.403       .  S
O534       Zr553   2.392       .  S
Zr535       O560   2.441       .  S
Zr535       O554   2.456       .  S
Zr535       O562   2.515       .  S
Zr535       O550   2.495       .  S
Zr535       O541   2.406       .  S
Zr535       O542   2.422       .  S
Zr535       O543   2.410       .  S
Zr535       O544   2.400       .  S
Zr536       O555   2.439       .  S
Zr536       O548   2.438       .  S
Zr536       O549   2.441       .  S
Zr536       O542   2.426       .  S
Zr536       O543   2.404       .  S
Zr537       O539   2.436       .  S
Zr537       O561   2.437       .  S
Zr537       O563   2.449       .  S
Zr537       O541   2.398       .  S
Zr537       O544   2.379       .  S
Zr538       O564   2.438       .  S
Zr538       O565   2.437       .  S
Zr538       O540   2.433       .  S
Zr538       O541   2.384       .  S
Zr538       O542   2.398       .  S
O539        H576   0.990       .  S
O540        H571   0.989       .  S
O540        H585   0.989       .  S
O542        H568   0.966       .  S
O543       Zr553   2.375       .  S
O544       Zr553   2.384       .  S
O544        H569   0.963       .  S
C546        C608   1.490       .  S
O548        H584   0.990       .  S
O549        C551   1.287       .  A
O550        C551   1.297       .  A
O552       Zr553   2.436       .  S
O552        H581   0.990       .  S
Zr553       O556   2.435       .  S
Zr553       O557   2.435       .  S
Zr553       O558   2.419       .  S
O554        C559   1.283       .  A
O555        H572   0.990       .  S
O555        H587   0.990       .  S
O556        H573   0.990       .  S
O557        H577   0.990       .  S
O557        H586   0.990       .  S
O558        C559   1.272       .  A
O560        H579   0.991       .  S
O560        H583   0.990       .  S
O561        H575   0.990       .  S
O561        H582   0.990       .  S
O562        C566   1.299       .  A
O563        C566   1.287       .  A
O564        H574   0.990       .  S
O565        H578   0.990       .  S
C566        C710   1.515       .  S
C589        C590   1.522   1_545  S
C589        C595   1.526       .  S
C589        C593   1.543       .  S
C589        C922   1.473       .  S
C590        H597   1.087       .  S
C590        C591   1.361       .  D
C591        C592   1.556       .  S
C592        C596   1.547   1_565  S
C592        C594   1.522   1_565  S
C592        H598   1.111       .  S
C593        H599   1.086       .  S
C593        C594   1.374       .  D
C594        C908   1.434       .  S
C595        H600   1.088       .  S
C595        C596   1.365       .  D
C601        C602   1.521       .  S
C601        C607   1.522   1_545  S
C601        C605   1.538       .  S
C601        C924   1.472       .  S
C602        H609   1.087       .  S
C602        C603   1.363       .  D
C603        C604   1.565       .  S
C604        C608   1.561   1_545  S
C604        C606   1.528   1_545  S
C604        H610   1.111   1_545  S
C605        H611   1.086       .  S
C605        C606   1.371   1_545  D
C606        C894   1.436       .  S
C607        H612   1.088       .  S
C607        C608   1.363       .  D
C613        C614   1.513       .  S
C613        C619   1.514   1_565  S
C613        C617   1.552       .  S
C613        C910   1.460       .  S
C614        H621   1.089       .  S
C614        C615   1.358       .  D
C615        C665   1.485       .  S
C615        C616   1.564       .  S
C616        C620   1.574   1_565  S
C616        C618   1.533       .  S
C616        H622   1.111       .  S
C617        H623   1.086       .  S
C617        C618   1.374       .  D
C618        C880   1.456       .  S
C619        H624   1.087       .  S
C619        C620   1.360       .  D
C625        C626   1.525       .  S
C625        C631   1.513   1_565  S
C625        C629   1.548       .  S
C625        C882   1.486       .  S
C626        H633   1.088       .  S
C626        C627   1.376       .  D
C627        C628   1.558       .  S
C628        C632   1.569   1_565  S
C628        C630   1.520       .  S
C628        H634   1.111   1_565  S
C629        H635   1.086       .  S
C629        C630   1.373       .  D
C630        C896   1.435       .  S
C631        H636   1.086       .  S
C631        C632   1.367       .  D
C632        C775   1.499       .  S
Zr637       O638   2.440       .  S
Zr637       O639   2.522       .  S
Zr637       O640   2.519       .  S
Zr637       O643   2.479       .  S
Zr637       O645   2.392       .  S
Zr637       O646   2.413       .  S
Zr637       O647   2.417       .  S
Zr637       O648   2.427       .  S
O638        H694   0.990       .  S
O638        H702   0.991       .  S
O639        C659   1.293       .  A
O640        C661   1.300       .  A
O641       Zr651   2.443       .  S
O641        C660   1.286       .  A
O642       Zr650   2.402       .  S
O642        C661   1.280       .  A
O643        C660   1.293       .  A
O644       Zr652   2.392       .  S
O644        C659   1.264       .  A
O645       Zr650   2.402       .  S
O645       Zr652   2.380       .  S
O646       Zr651   2.397       .  S
O646       Zr652   2.400       .  S
O646        H681   0.966       .  S
O647       Zr650   2.409       .  S
O647       Zr667   2.374       .  S
O647        H684   0.963       .  S
O648       Zr651   2.395       .  S
O648       Zr667   2.385       .  S
Zr649       O674   2.440       .  S
Zr649       O668   2.480       .  S
Zr649       O676   2.479       .  S
Zr649       O664   2.497       .  S
Zr649       O655   2.390       .  S
Zr649       O656   2.415       .  S
Zr649       O657   2.387       .  S
Zr649       O658   2.418       .  S
Zr650       O669   2.433       .  S
Zr650       O662   2.435       .  S
Zr650       O663   2.418       .  S
Zr650       O656   2.398       .  S
Zr650       O657   2.377       .  S
Zr651       O653   2.436       .  S
Zr651       O675   2.427       .  S
Zr651       O677   2.473       .  S
Zr651       O655   2.368       .  S
Zr651       O658   2.390       .  S
Zr652       O678   2.437       .  S
Zr652       O679   2.436       .  S
Zr652       O654   2.445       .  S
Zr652       O655   2.362       .  S
Zr652       O656   2.393       .  S
O653        H690   0.990       .  S
O654        H685   0.990       .  S
O654        H699   0.989       .  S
O656        H682   0.964       .  S
O657       Zr667   2.387       .  S
O658       Zr667   2.395       .  S
O658        H683   0.965       .  S
O662        H698   0.990       .  S
O663        C665   1.282       .  A
O664        C665   1.296       .  A
O666       Zr667   2.437       .  S
O666        H695   0.990       .  S
Zr667       O670   2.436       .  S
Zr667       O671   2.444       .  S
Zr667       O672   2.402       .  S
O668        C673   1.285       .  A
O669        H686   0.990       .  S
O669        H701   0.989       .  S
O670        H687   0.990       .  S
O671        H691   0.990       .  S
O671        H700   0.989       .  S
O672        C673   1.270       .  A
O674        H693   0.991       .  S
O674        H697   0.990       .  S
O675        H689   0.990       .  S
O675        H696   0.988       .  S
O676        C680   1.296       .  A
O677        C680   1.291       .  A
O678        H688   0.990       .  S
O679        H692   0.990       .  S
C680        C722   1.498       .  S
C703        C704   1.523   1_455  S
C703        C709   1.531       .  S
C703        C707   1.536       .  S
C703        C866   1.473       .  S
C704        H711   1.088       .  S
C704        C705   1.362       .  D
C705        C706   1.574   1_655  S
C706        C710   1.572       .  S
C706        C708   1.524       .  S
C706        H712   1.111       .  S
C707        H713   1.087       .  S
C707        C708   1.363       .  D
C708        C854   1.422       .  S
C709        H714   1.087       .  S
C709        C710   1.371       .  D
C715        C716   1.517       .  S
C715        C721   1.521   1_455  S
C715        C719   1.535       .  S
C715        C868   1.471       .  S
C716        H723   1.087       .  S
C716        C717   1.376       .  D
C717        C718   1.564       .  S
C718        C722   1.573   1_455  S
C718        C720   1.529       .  S
C718        H724   1.111       .  S
C719        H725   1.088   1_455  S
C719        C720   1.351       .  D
C720        C838   1.429   1_455  S
C721        H726   1.087       .  S
C721        C722   1.375       .  D
C727        C728   1.518       .  S
C727        C733   1.528   1_455  S
C727        C731   1.534   1_455  S
C727        C826   1.466   1_455  S
C728        H735   1.087       .  S
C728        C729   1.362       .  D
C729        C730   1.561       .  S
C730        C734   1.554   1_455  S
C730        C732   1.527   1_455  S
C730        H736   1.111       .  S
C731        H737   1.087       .  S
C731        C732   1.360       .  D
C732        C852   1.423       .  S
C733        H738   1.085       .  S
C733        C734   1.375       .  D
C739        C740   1.516   1_655  S
C739        C745   1.516       .  S
C739        C743   1.533       .  S
C739        C840   1.455       .  S
C740        H747   1.087       .  S
C740        C741   1.370       .  D
C741        C774   1.488       .  S
C741        C742   1.559       .  S
C742        C746   1.561   1_455  S
C742        C744   1.530       .  S
C742        H748   1.111       .  S
C743        H749   1.087       .  S
C743        C744   1.360   1_655  D
C744        C824   1.437       .  S
C745        H750   1.088       .  S
C745        C746   1.365       .  D
Zr751       O752   2.441       .  S
Zr751       O753   2.471       .  S
Zr751       O754   2.462       .  S
Zr751       O757   2.460       .  S
Zr751       O759   2.385       .  S
Zr751       O760   2.392       .  S
Zr751       O761   2.421       .  S
Zr751       O762   2.413       .  S
O752        H808   0.990       .  S
O752        H816   0.991       .  S
O753        C773   1.294       .  A
O754        C775   1.291       .  A
O755       Zr765   2.427       .  S
O755        C774   1.283       .  A
O756       Zr764   2.449       .  S
O756        C775   1.284       .  A
O757        C774   1.287       .  A
O758       Zr766   2.424       .  S
O758        C773   1.279       .  A
O759       Zr764   2.403       .  S
O759       Zr766   2.389       .  S
O760       Zr765   2.389       .  S
O760       Zr766   2.378       .  S
O760        H795   0.966       .  S
O761       Zr764   2.400       .  S
O761       Zr781   2.405       .  S
O761        H798   0.965       .  S
O762       Zr765   2.392       .  S
O762       Zr781   2.393       .  S
Zr763       O788   2.443       .  S
Zr763       O782   2.467       .  S
Zr763       O790   2.442       .  S
Zr763       O778   2.451       .  S
Zr763       O769   2.407       .  S
Zr763       O770   2.420       .  S
Zr763       O771   2.379       .  S
Zr763       O772   2.381       .  S
Zr764       O783   2.438       .  S
Zr764       O776   2.436       .  S
Zr764       O777   2.433       .  S
Zr764       O770   2.406       .  S
Zr764       O771   2.399       .  S
Zr765       O767   2.435       .  S
Zr765       O789   2.439       .  S
Zr765       O791   2.436       .  S
Zr765       O769   2.397       .  S
Zr765       O772   2.406       .  S
Zr766       O792   2.437       .  S
Zr766       O793   2.435       .  S
Zr766       O768   2.440       .  S
Zr766       O769   2.404       .  S
Zr766       O770   2.388       .  S
O767        H804   0.990       .  S
O768        H799   0.990       .  S
O768        H813   0.990       .  S
O770        H796   0.964       .  S
O771       Zr781   2.383       .  S
O772       Zr781   2.383       .  S
O772        H797   0.966       .  S
O776        H812   0.990       .  S
O777        C779   1.287       .  A
O778        C779   1.283       .  A
O780       Zr781   2.437       .  S
O780        H809   0.990       .  S
Zr781       O784   2.436       .  S
Zr781       O785   2.437       .  S
Zr781       O786   2.437       .  S
O782        C787   1.292       .  A
O783        H800   0.990       .  S
O783        H815   0.990       .  S
O784        H801   0.990       .  S
O785        H805   0.990       .  S
O785        H814   0.990       .  S
O786        C787   1.280       .  A
O788        H807   0.990       .  S
O788        H811   0.991       .  S
O789        H803   0.990       .  S
O789        H810   0.990       .  S
O790        C794   1.290       .  A
O791        C794   1.281       .  A
O792        H802   0.990       .  S
O793        H806   0.990       .  S
C817        C825   1.436   1_554  S
C817        C818   1.399       .  A
C817        C822   1.402   1_655  A
C818        C819   1.397       .  A
C818        H827   1.083       .  S
C819        C820   1.400   1_655  A
C819        H828   1.081       .  S
C820        C823   1.435       .  S
C820        C821   1.400       .  A
C821        C822   1.398       .  A
C821        H829   1.083       .  S
C822        H830   1.084       .  S
C823        C824   1.203       .  T
C825        C826   1.204       .  T
C831        C839   1.426       .  S
C831        C832   1.399       .  A
C831        C836   1.396   1_655  A
C832        C833   1.397       .  A
C832        H841   1.080       .  S
C833        C834   1.401       .  A
C833        H842   1.082       .  S
C834        C837   1.426       .  S
C834        C835   1.397   1_655  A
C835        C836   1.389       .  A
C835        H843   1.083       .  S
C836        H844   1.084       .  S
C837        C838   1.198       .  T
C839        C840   1.198       .  T
C845        C853   1.421       .  S
C845        C846   1.396       .  A
C845        C850   1.400   1_455  A
C846        C847   1.391       .  A
C846        H855   1.083       .  S
C847        C848   1.399   1_455  A
C847        H856   1.084       .  S
C848        C851   1.422       .  S
C848        C849   1.398       .  A
C849        C850   1.393       .  A
C849        H857   1.084       .  S
C850        H858   1.084       .  S
C851        C852   1.195       .  T
C853        C854   1.194       .  T
C859        C867   1.444       .  S
C859        C860   1.403   1_455  A
C859        C864   1.403       .  A
C860        C861   1.400       .  A
C860        H869   1.084       .  S
C861        C862   1.402   1_655  A
C861        H870   1.084       .  S
C862        C865   1.444   1_554  S
C862        C863   1.401       .  A
C863        C864   1.400       .  A
C863        H871   1.084       .  S
C864        H872   1.082       .  S
C865        C866   1.209       .  T
C867        C868   1.208       .  T
C873        C881   1.456       .  S
C873        C874   1.404   1_455  A
C873        C878   1.406       .  A
C874        C875   1.403       .  A
C874        H883   1.084   1_655  S
C875        C876   1.403       .  A
C875        H884   1.084       .  S
C876        C879   1.456       .  S
C876        C877   1.405       .  A
C877        C878   1.408   1_655  A
C877        H885   1.083   1_565  S
C878        H886   1.083   1_565  S
C879        C880   1.215       .  T
C881        C882   1.216       .  T
C887        C895   1.429       .  S
C887        C888   1.399       .  A
C887        C892   1.400   1_565  A
C888        C889   1.395       .  A
C888        H897   1.084       .  S
C889        C890   1.400       .  A
C889        H898   1.084       .  S
C890        C893   1.430       .  S
C890        C891   1.401   1_565  A
C891        C892   1.395       .  A
C891        H899   1.084       .  S
C892        H900   1.084       .  S
C893        C894   1.202       .  T
C895        C896   1.201       .  T
C901        C909   1.428       .  S
C901        C902   1.398       .  A
C901        C906   1.400   1_565  A
C902        C903   1.394       .  A
C902        H911   1.084       .  S
C903        C904   1.401   1_565  A
C903        H912   1.084       .  S
C904        C907   1.426       .  S
C904        C905   1.399       .  A
C905        C906   1.395       .  A
C905        H913   1.084       .  S
C906        H914   1.083       .  S
C907        C908   1.201       .  T
C909        C910   1.201       .  T
C915        C923   1.443       .  S
C915        C916   1.401       .  A
C915        C920   1.403   1_545  A
C916        C917   1.398   1_455  A
C916        H925   1.084       .  S
C917        C918   1.401       .  A
C917        H926   1.084       .  S
C918        C921   1.444       .  S
C918        C919   1.403   1_545  A
C919        C920   1.404   1_655  A
C919        H927   1.083       .  S
C920        H928   1.083       .  S
C921        C922   1.209       .  T
C923        C924   1.208       .  T
C929        C937   1.442       .  S
C929        C930   1.401   1_566  A
C929        C934   1.402   1_565  A
C930        C931   1.399       .  A
C930        H939   1.084   1_545  S
C931        C932   1.401   1_554  A
C931        H940   1.084       .  S
C932        C935   1.443       .  S
C932        C933   1.403       .  A
C933        C934   1.401       .  A
C933        H941   1.081       .  S
C934        H942   1.084   1_545  S
C935        C936   1.207   1_556  T
C937        C938   1.208       .  T
C943        C951   1.421       .  S
C943        C944   1.395       .  A
C943        C948   1.401       .  A
C944        C945   1.387       .  A
C944        H953   1.084       .  S
C945        C946   1.398       .  A
C945        H954   1.083       .  S
C946        C949   1.422       .  S
C946        C947   1.399       .  A
C947        C948   1.396       .  A
C947        H955   1.084   1_554  S
C948        H956   1.084   1_554  S
C949        C950   1.195       .  T
C951        C952   1.196       .  T
C957        C965   1.446       .  S
C957        C958   1.402       .  A
C957        C962   1.403   1_556  A
C958        C959   1.401       .  A
C958        H967   1.083       .  S
C959        C960   1.402       .  A
C959        H968   1.083       .  S
C960        C963   1.444       .  S
C960        C961   1.402   1_556  A
C961        C962   1.402       .  A
C961        H969   1.083       .  S
C962        H970   1.083       .  S
C963        C964   1.209       .  T
C965        C966   1.210       .  T
C971        C979   1.442       .  S
C971        C972   1.403       .  A
C971        C976   1.402   1_554  A
C972        C973   1.402   1_545  A
C972        H981   1.084       .  S
C973        C974   1.403       .  A
C973        H982   1.083       .  S
C974        C977   1.446       .  S
C974        C975   1.402   1_554  A
C975        C976   1.400   1_565  A
C975        H983   1.084       .  S
C976        H984   1.084       .  S
C977        C978   1.210       .  T
C979        C980   1.207       .  T
C985        C993   1.429       .  S
C985        C986   1.398       .  A
C985        C990   1.400       .  A
C986        C987   1.393       .  A
C986        H995   1.084       .  S
C987        C988   1.399   1_565  A
C987        H996   1.084   1_565  S
C988        C991   1.424       .  S
C988        C989   1.400   1_545  A
C989        C990   1.395       .  A
C989        H997   1.084   1_565  S
C990        H998   1.083       .  S
C991        C992   1.197       .  T
C993        C994   1.200       .  T
C999       C1007   1.449       .  S
C999       C1000   1.401       .  A
C999       C1004   1.405       .  A
C1000      C1001   1.400       .  A
C1000      H1009   1.084       .  S
C1001      C1002   1.402       .  A
C1001      H1010   1.080       .  S
C1002      C1005   1.451       .  S
C1002      C1003   1.404       .  A
C1003      C1004   1.405       .  A
C1003      H1011   1.083       .  S
C1004      H1012   1.083       .  S
C1005      C1006   1.212       .  T
C1007      C1008   1.212       .  T
C1013      C1021   1.465       .  S
C1013      C1014   1.408       .  A
C1013      C1018   1.404       .  A
C1014      C1015   1.411       .  A
C1014      H1023   1.083       .  S
C1015      C1016   1.406       .  A
C1015      H1024   1.083       .  S
C1016      C1019   1.462       .  S
C1016      C1017   1.404       .  A
C1017      C1018   1.406       .  A
C1017      H1025   1.083       .  S
C1018      H1026   1.083       .  S
C1019      C1020   1.219       .  T
C1021      C1022   1.221       .  T
C1027      C1035   1.426       .  S
C1027      C1028   1.399   1_545  A
C1027      C1032   1.399       .  A
C1028      C1029   1.395       .  A
C1028      H1037   1.084   1_565  S
C1029      C1030   1.400       .  A
C1029      H1038   1.084       .  S
C1030      C1033   1.422       .  S
C1030      C1031   1.398       .  A
C1031      C1032   1.392   1_565  A
C1031      H1039   1.084       .  S
C1032      H1040   1.084       .  S
C1033      C1034   1.197       .  T
C1035      C1036   1.199       .  T
C1041      C1049   1.426       .  S
C1041      C1042   1.400       .  A
C1041      C1046   1.398   1_554  A
C1042      C1043   1.394   1_554  A
C1042      H1051   1.084       .  S
C1043      C1044   1.399       .  A
C1043      H1052   1.084       .  S
C1044      C1047   1.424       .  S
C1044      C1045   1.400       .  A
C1045      C1046   1.392       .  A
C1045      H1053   1.084       .  S
C1046      H1054   1.084   1_556  S
C1047      C1048   1.199       .  T
C1049      C1050   1.200       .  T
C1055      C1063   1.454       .  S
C1055      C1056   1.402       .  A
C1055      C1060   1.406       .  A
C1056      C1057   1.401       .  A
C1056      H1065   1.084       .  S
C1057      C1058   1.403       .  A
C1057      H1066   1.084       .  S
C1058      C1061   1.455       .  S
C1058      C1059   1.406       .  A
C1059      C1060   1.408       .  A
C1059      H1067   1.083       .  S
C1060      H1068   1.083       .  S
C1061      C1062   1.215       .  T
C1063      C1064   1.215       .  T
C1069      C1077   1.451       .  S
C1069      C1070   1.404       .  A
C1069      C1074   1.403       .  A
C1070      C1071   1.404       .  A
C1070      H1079   1.083       .  S
C1071      C1072   1.404       .  A
C1071      H1080   1.083       .  S
C1072      C1075   1.451       .  S
C1072      C1073   1.403       .  A
C1073      C1074   1.403       .  A
C1073      H1081   1.083       .  S
C1074      H1082   1.083       .  S
C1075      C1076   1.213       .  T
C1077      C1078   1.213       .  T
C1083      C1091   1.429       .  S
C1083      C1084   1.399       .  A
C1083      C1088   1.401       .  A
C1084      C1085   1.395   1_554  A
C1084      H1093   1.084       .  S
C1085      C1086   1.401       .  A
C1085      H1094   1.084       .  S
C1086      C1089   1.428       .  S
C1086      C1087   1.399   1_556  A
C1087      C1088   1.394       .  A
C1087      H1095   1.084   1_554  S
C1088      H1096   1.084       .  S
C1089      C1090   1.201       .  T
C1091      C1092   1.201       .  T
C1097      C1105   1.448       .  S
C1097      C1098   1.402       .  A
C1097      C1102   1.404       .  A
C1098      C1099   1.402   1_455  A
C1098      H1107   1.083       .  S
C1099      C1100   1.403       .  A
C1099      H1108   1.084       .  S
C1100      C1103   1.449       .  S
C1100      C1101   1.403       .  A
C1101      C1102   1.403   1_655  A
C1101      H1109   1.083       .  S
C1102      H1110   1.084       .  S
C1103      C1104   1.211       .  T
C1105      C1106   1.210       .  T
C1111      C1119   1.438       .  S
C1111      C1112   1.402       .  A
C1111      C1116   1.400       .  A
C1112      C1113   1.400       .  A
C1112      H1121   1.084       .  S
C1113      C1114   1.403       .  A
C1113      H1122   1.083       .  S
C1114      C1117   1.438       .  S
C1114      C1115   1.400       .  A
C1115      C1116   1.397       .  A
C1115      H1123   1.084       .  S
C1116      H1124   1.084       .  S
C1117      C1118   1.204       .  T
C1119      C1120   1.205       .  T
C1125      C1133   1.443       .  S
C1125      C1126   1.402       .  A
C1125      C1130   1.402       .  A
C1126      C1127   1.400       .  A
C1126      H1135   1.083       .  S
C1127      C1128   1.401       .  A
C1127      H1136   1.083       .  S
C1128      C1131   1.440       .  S
C1128      C1129   1.403       .  A
C1129      C1130   1.400       .  A
C1129      H1137   1.084       .  S
C1130      H1138   1.084       .  S
C1131      C1132   1.206       .  T
C1133      C1134   1.208       .  T
C1139      C1147   1.424       .  S
C1139      C1140   1.399   1_455  A
C1139      C1144   1.398   1_455  A
C1140      C1141   1.394       .  A
C1140      H1149   1.084   1_655  S
C1141      C1142   1.399       .  A
C1141      H1150   1.084       .  S
C1142      C1145   1.429       .  S
C1142      C1143   1.400       .  A
C1143      C1144   1.392       .  A
C1143      H1151   1.080       .  S
C1144      H1152   1.084   1_655  S
C1145      C1146   1.200       .  T
C1147      C1148   1.197       .  T
