geometry optimzed in LAMMPS
_audit_creation_date              2020-12-01 
_audit_creation_method            'lammps2cif' 
_symmetry_space_group_name_H-M    'P1' 
_symmetry_Int_Tables_number       1 
_symmetry_cell_setting            triclinic 
loop_ 
_symmetry_equiv_pos_as_xyz 
  x,y,z 
_cell_length_a                    35.2935057 
_cell_length_b                    35.629681175090845 
_cell_length_c                    35.85517779701672 
_cell_angle_alpha                 89.6799142184476 
_cell_angle_beta                  88.49050548174681 
_cell_angle_gamma                 89.89996499698212 
loop_ 
_atom_site_label 
_atom_site_type_symbol 
_atom_site_fract_x 
_atom_site_fract_y 
_atom_site_fract_z 
_atom_site_charge 
Zn1        Zn  0.79651728  0.75177172  0.72602157     1.49700
Zn2        Zn  0.74199249  0.73675789  0.79617694     1.49400
Zn3        Zn  0.73189781  0.80951455  0.74674700     1.49100
Zn4        Zn  0.71016509  0.72599699  0.71281848     1.49500
O5          O  0.74439407  0.75578754  0.74498024    -1.84100
O6          O  0.83144869  0.73279422  0.76524789    -0.74700
O7          O  0.71777302  0.77374421  0.83221367    -0.74600
O8          O  0.77387322  0.84241784  0.72302078    -0.74100
O9          O  0.79346156  0.72066040  0.81374995    -0.74800
O10         O  0.81631156  0.80006997  0.70404146    -0.74400
O11         O  0.71389600  0.82655258  0.79917819    -0.74900
O12         O  0.66965870  0.76267101  0.69175131    -0.74300
O13         O  0.70936961  0.69133532  0.79926515    -0.75100
O14         O  0.68705523  0.81742927  0.71524410    -0.74500
O15         O  0.68315753  0.68386160  0.74451565    -0.74900
O16         O  0.74193192  0.69926566  0.67019068    -0.74800
O17         O  0.80028924  0.71539481  0.68435437    -0.74600
C18         C  0.82630121  0.72015073  0.79830096     0.77200
C19         C  0.70813691  0.80806096  0.82942685     0.77600
C20         C  0.80440025  0.83370117  0.70515632     0.76600
C21         C  0.66450373  0.79808329  0.69618860     0.77000
C22         C  0.68702795  0.67366636  0.77857078     0.78100
C23         C  0.77791712  0.69706167  0.66427582     0.77200
C24         C  0.87105119  0.35099887  0.53238340     0.86500
C25         C  0.91366912  0.34194899  0.52959931    -0.53700
C26         C  0.93319726  0.36003110  0.50120888     0.09400
C27         C  0.90679711  0.38421232  0.47637795     0.20400
C28         C  0.87092757  0.39440267  0.53386281    -0.54500
C29         C  0.88838540  0.41215863  0.50421261     0.09500
C30         C  0.85562006  0.34143562  0.49438883    -0.54000
C31         C  0.87398315  0.35818403  0.46510061     0.10100
H32         H  0.92721109  0.32371849  0.54919310     0.14600
H33         H  0.92066326  0.39734746  0.45173045     0.00400
H34         H  0.85899900  0.41041909  0.55696787     0.14900
H35         H  0.83172509  0.32268647  0.49085238     0.14700
C36         C  0.16504230  0.37570217  0.45813898     0.86500
C37         C  0.12354073  0.36162887  0.45603125    -0.53700
C38         C  0.09898986  0.37512431  0.48305977     0.09400
C39         C  0.11972714  0.39987301  0.51169121     0.20400
C40         C  0.16210010  0.41867395  0.46050042    -0.54500
C41         C  0.13772556  0.43174590  0.48771982     0.09500
C42         C  0.17602062  0.36246135  0.49715339    -0.54000
C43         C  0.15346190  0.37579744  0.52547218     0.10100
H44         H  0.11524082  0.34133689  0.43563412     0.14600
H45         H  0.10107011  0.41034642  0.53465987     0.00400
H46         H  0.17860423  0.43711755  0.44222918     0.14900
H47         H  0.19892139  0.34309023  0.50236452     0.14700
C48         C  0.86130080  0.63335551  0.46367899     0.86500
C49         C  0.90256840  0.64194064  0.47427816    -0.53700
C50         C  0.91489538  0.62583520  0.50721328     0.09400
C51         C  0.88206240  0.60272834  0.52665417     0.20400
C52         C  0.85853295  0.59065204  0.46458320    -0.54500
C53         C  0.86970843  0.57436964  0.49669945     0.09500
C54         C  0.83894759  0.64718272  0.49836954    -0.54000
C55         C  0.84780667  0.63019933  0.53111531     0.10100
H56         H  0.92046319  0.65933470  0.45665845     0.14600
H57         H  0.88848599  0.58914149  0.55330478     0.00400
H58         H  0.84989788  0.57428983  0.44076685     0.14900
H59         H  0.81801648  0.66949259  0.49734074     0.14700
C60         C  0.14131424  0.64801347  0.55963651     0.86500
C61         C  0.09782737  0.65502882  0.55937725    -0.53700
C62         C  0.07992341  0.64235428  0.52832895     0.09400
C63         C  0.10721627  0.62274135  0.50034390     0.20400
C64         C  0.14516187  0.60520817  0.55333382    -0.54500
C65         C  0.12602357  0.59140760  0.52372875     0.09500
C66         C  0.15738553  0.66328752  0.52252933    -0.54000
C67         C  0.13934240  0.65149923  0.49156137     0.10100
H68         H  0.08223183  0.66713458  0.58289192     0.14600
H69         H  0.09273981  0.61247772  0.47527096     0.00400
H70         H  0.16357360  0.58701349  0.56871178     0.14900
H71         H  0.18331655  0.67939227  0.52026505     0.14700
C72         C  0.35349400  0.47710208  0.87247229     0.86500
C73         C  0.39609000  0.47900772  0.86522006    -0.53700
C74         C  0.41355618  0.50824026  0.88151624     0.09400
C75         C  0.38676395  0.53275926  0.90623018     0.20400
C76         C  0.35040338  0.47516370  0.91579859    -0.54500
C77         C  0.36732840  0.50455475  0.93345718     0.09500
C78         C  0.33792817  0.51594862  0.86318471    -0.54000
C79         C  0.35473697  0.54574269  0.88027232     0.10100
H80         H  0.41203025  0.45703633  0.85113798     0.14600
H81         H  0.40145136  0.55514683  0.92125812     0.00400
H82         H  0.33899377  0.45159655  0.93160945     0.14900
H83         H  0.31499165  0.51925608  0.84381048     0.14700
C84         C  0.37652259  0.53663867  0.15784475     0.86500
C85         C  0.42024741  0.53397993  0.16062128    -0.53700
C86         C  0.43693572  0.50532794  0.14064690     0.09400
C87         C  0.40765967  0.48143298  0.11970091     0.20400
C88         C  0.37117237  0.53931380  0.11531264    -0.54500
C89         C  0.38685535  0.51044810  0.09505145     0.09500
C90         C  0.36284258  0.49773486  0.16980753    -0.54000
C91         C  0.37842963  0.46869099  0.15037313     0.10100
H92         H  0.43748903  0.55405188  0.17493313     0.14600
H93         H  0.41986962  0.45789036  0.10360658     0.00400
H94         H  0.35594039  0.56221966  0.10230770     0.14900
H95         H  0.34278181  0.49341561  0.19296445     0.14700
C96         C  0.63385965  0.46417034  0.84252597     0.86500
C97         C  0.64632742  0.47074667  0.88308916    -0.53700
C98         C  0.63210667  0.50262066  0.90060877     0.09400
C99         C  0.60534855  0.52445190  0.87431937     0.20400
C100        C  0.59021368  0.46395536  0.84744193    -0.54500
C101        C  0.57552838  0.49508577  0.86422858     0.09500
C102        C  0.64259889  0.50077380  0.82142039    -0.54000
C103        C  0.62781960  0.53228491  0.83744281     0.10100
H104        H  0.66167420  0.44933771  0.89792066     0.14600
H105        H  0.59263177  0.55041699  0.88500121     0.00400
H106        H  0.57182346  0.44105819  0.84003154     0.14900
H107        H  0.65965043  0.50163556  0.79576429     0.14700
C108        C  0.66187092  0.46247863  0.12198493     0.86500
C109        C  0.61895618  0.46697051  0.12967156    -0.53700
C110        C  0.60211172  0.49766710  0.11379806     0.09400
C111        C  0.63194865  0.52293929  0.09313215     0.20400
C112        C  0.66646823  0.46516640  0.07923734    -0.54500
C113        C  0.65165686  0.49704993  0.06350980     0.09500
C114        C  0.67703446  0.49906877  0.13761224    -0.54000
C115        C  0.66223410  0.53076978  0.12274684     0.10100
H116        H  0.60321657  0.44828081  0.14828548     0.14600
H117        H  0.62071420  0.54875256  0.08101221     0.00400
H118        H  0.67908816  0.44265608  0.06294430     0.14900
H119        H  0.69564897  0.50012966  0.16114068     0.14700
C120        C  0.54496078  0.84510467  0.36802802     0.86500
C121        C  0.54076007  0.88640391  0.35589572    -0.53700
C122        C  0.50989818  0.90442437  0.37107524     0.09400
C123        C  0.48413405  0.87860446  0.39539888     0.20400
C124        C  0.54204533  0.84500774  0.41064147    -0.54500
C125        C  0.51044039  0.86200902  0.42508194     0.09500
C126        C  0.50709729  0.82779805  0.35593392    -0.54000
C127        C  0.47495053  0.84490730  0.37005594     0.10100
H128        H  0.56170724  0.90109362  0.33869419     0.14600
H129        H  0.45932624  0.89368501  0.40731845     0.00400
H130        H  0.56344280  0.83250840  0.42810147     0.14900
H131        H  0.50516521  0.80503558  0.33619384     0.14700
C132        C  0.55478376  0.12705980  0.36536414     0.86500
C133        C  0.54617246  0.13105382  0.40768166    -0.53700
C134        C  0.51364504  0.11357132  0.42104005     0.09400
C135        C  0.49158476  0.09534159  0.38928700     0.20400
C136        C  0.55309922  0.08446200  0.35886177    -0.54500
C137        C  0.52044627  0.06760618  0.37155933     0.09500
C138        C  0.51928301  0.14384506  0.34868046    -0.54000
C139        C  0.48633724  0.12812670  0.36101352     0.10100
H140        H  0.56222995  0.14888960  0.42562824     0.14600
H141        H  0.46508652  0.08098122  0.39718157     0.00400
H142        H  0.57646908  0.06879091  0.34620927     0.14900
H143        H  0.51996738  0.16772267  0.32966361     0.14700
C144        C  0.45789271  0.86295425  0.64574472     0.86500
C145        C  0.46098181  0.90512066  0.65390446    -0.53700
C146        C  0.49152206  0.92302236  0.63758498     0.09400
C147        C  0.51642316  0.89620842  0.61306002     0.20400
C148        C  0.45785178  0.86226159  0.60247128    -0.54500
C149        C  0.48837042  0.87941024  0.58524106     0.09500
C150        C  0.49610750  0.84584544  0.65537202    -0.54000
C151        C  0.52669117  0.86279596  0.63884161     0.10100
H152        H  0.43878727  0.92041266  0.66880639     0.14600
H153        H  0.54151593  0.90930007  0.59921186     0.00400
H154        H  0.43586524  0.84989655  0.58603135     0.14900
H155        H  0.49884030  0.82231136  0.67454897     0.14700
C156        C  0.44788889  0.14728577  0.63726910     0.86500
C157        C  0.45504082  0.15199841  0.59489894    -0.53700
C158        C  0.48643084  0.13354507  0.58099226     0.09400
C159        C  0.50920317  0.11383456  0.61153922     0.20400
C160        C  0.44905238  0.10496515  0.64506503    -0.54500
C161        C  0.48030126  0.08693869  0.63078418     0.09500
C162        C  0.48481276  0.16243526  0.65323764    -0.54000
C163        C  0.51696411  0.14587876  0.63951780     0.10100
H164        H  0.43729351  0.16887552  0.57723702     0.14600
H165        H  0.53483090  0.09898599  0.60104819     0.00400
H166        H  0.42668329  0.09055924  0.66067459     0.14900
H167        H  0.48584734  0.18607797  0.67215885     0.14700
Zn168      Zn  0.29096529  0.27473945  0.76981542     1.49700
Zn169      Zn  0.21132306  0.23762444  0.79154260     1.49400
Zn170      Zn  0.21646752  0.32043715  0.75135480     1.49100
Zn171      Zn  0.23797078  0.24868814  0.70537491     1.49500
O172        O  0.23869323  0.27020638  0.75483051    -1.84100
O173        O  0.30085204  0.24250851  0.81413296    -0.74700
O174        O  0.16883354  0.26844424  0.81598143    -0.74600
O175        O  0.24997979  0.35881245  0.77530658    -0.74100
O176        O  0.24640390  0.21696822  0.83208528    -0.74800
O177        O  0.30284271  0.32691718  0.78646276    -0.74400
O178        O  0.16950450  0.32139610  0.78313711    -0.74900
O179        O  0.21712386  0.28434637  0.66655320    -0.74300
O180        O  0.18827277  0.19242866  0.76505847    -0.75100
O181        O  0.20229302  0.33591623  0.69814024    -0.74500
O182        O  0.20540304  0.20343409  0.70604653    -0.74900
O183        O  0.28952571  0.22912638  0.69054098    -0.74800
O184        O  0.32760274  0.25512125  0.73112455    -0.74600
C185        C  0.28187526  0.22177393  0.83650785     0.77200
C186        C  0.15480329  0.30059932  0.80860054     0.77600
C187        C  0.28298474  0.35668157  0.78863576     0.76600
C188        C  0.20322814  0.31736928  0.66775775     0.77000
C189        C  0.18863002  0.18324173  0.73068001     0.78100
C190        C  0.32242583  0.23373950  0.70349409     0.77200
Zn191      Zn  0.26940931  0.79820253  0.26802588     1.49700
Zn192      Zn  0.19706480  0.74982942  0.28568253     1.49400
Zn193      Zn  0.25320825  0.72815597  0.21851934     1.49100
Zn194      Zn  0.28117352  0.71478174  0.30225527     1.49500
O195        O  0.25042618  0.74708791  0.26922532    -1.84100
O196        O  0.23603616  0.83301752  0.29765103    -0.74700
O197        O  0.16177571  0.73022549  0.24591645    -0.74600
O198        O  0.27469218  0.76570251  0.18193246    -0.74100
O199        O  0.18262898  0.80146153  0.30725427    -0.74800
O200        O  0.28095472  0.81725941  0.21581787    -0.74400
O201        O  0.20268686  0.71223123  0.20152619    -0.74900
O202        O  0.30283373  0.66940138  0.27275596    -0.74300
O203        O  0.18981007  0.71619637  0.32962431    -0.75100
O204        O  0.28471609  0.68208617  0.21519293    -0.74500
O205        O  0.24671328  0.69510369  0.34561257    -0.74900
O206        O  0.32651993  0.74567922  0.32190260    -0.74800
O207        O  0.31790058  0.80058667  0.29356038    -0.74600
C208        C  0.20274893  0.83071456  0.31188812     0.77200
C209        C  0.16903994  0.71450114  0.21457084     0.77600
C210        C  0.28369085  0.80005257  0.18482655     0.76600
C211        C  0.30193919  0.66126055  0.23808660     0.77000
C212        C  0.21087818  0.69787959  0.35146538     0.78100
C213        C  0.33722316  0.77921114  0.31403035     0.77200
Zn214      Zn  0.71221060  0.25514376  0.23578790     1.49700
Zn215      Zn  0.78417506  0.30499208  0.25121723     1.49400
Zn216      Zn  0.76603777  0.23517886  0.30162626     1.49100
Zn217      Zn  0.79473410  0.22103293  0.21586004     1.49500
O218        O  0.76482559  0.25368817  0.25067551    -1.84100
O219        O  0.69738944  0.30596886  0.21674642    -0.74700
O220        O  0.80131992  0.32214957  0.30231193    -0.74600
O221        O  0.71462542  0.21742418  0.32068868    -0.74100
O222        O  0.74778359  0.34064682  0.22715609    -0.74800
O223        O  0.67666046  0.23366950  0.27504626    -0.74400
O224        O  0.79118026  0.27090049  0.33664090    -0.74900
O225        O  0.81619816  0.17550454  0.24491641    -0.74300
O226        O  0.83025933  0.30791228  0.21826967    -0.75100
O227        O  0.79713110  0.18941572  0.30244735    -0.74500
O228        O  0.83835151  0.25234479  0.19196620    -0.74900
O229        O  0.76068387  0.20023686  0.17438426    -0.74800
O230        O  0.70461904  0.22265597  0.19186042    -0.74600
C231        C  0.71527061  0.33670805  0.21300855     0.77200
C232        C  0.80436218  0.30395365  0.33280027     0.77600
C233        C  0.68207854  0.21751341  0.30625695     0.76600
C234        C  0.81388591  0.16751814  0.27977843     0.77000
C235        C  0.84868585  0.28642708  0.19613132     0.78100
C236        C  0.72491710  0.20300794  0.16982282     0.77200
Zn237      Zn  0.74258179  0.25996979  0.79014485     1.49700
Zn238      Zn  0.72393190  0.18703977  0.74496857     1.49400
Zn239      Zn  0.71338447  0.26994403  0.70768999     1.49100
Zn240      Zn  0.79699426  0.23410266  0.72440231     1.49500
O241        O  0.74385038  0.23813309  0.74103836    -1.84100
O242        O  0.71791077  0.22623960  0.82713600    -0.74700
O243        O  0.67665691  0.18371183  0.71702519    -0.74600
O244        O  0.69176440  0.31675343  0.73626239    -0.74100
O245        O  0.70999465  0.17198495  0.79835177    -0.74800
O246        O  0.71520550  0.30864927  0.79249942    -0.74400
O247        O  0.66958423  0.23764905  0.68696852    -0.74900
O248        O  0.80499265  0.26620553  0.67992261    -0.74300
O249        O  0.75821094  0.14943498  0.71883479    -0.75100
O250        O  0.74863082  0.28884360  0.66470512    -0.74500
O251        O  0.81040606  0.18229785  0.70592417    -0.74900
O252        O  0.83383425  0.25280662  0.76239950    -0.74800
O253        O  0.79382388  0.27174033  0.80705270    -0.74600
C254        C  0.70683968  0.19242136  0.82735480     0.77200
C255        C  0.65883524  0.20391393  0.69420982     0.77600
C256        C  0.69616808  0.32792791  0.76978247     0.76600
C257        C  0.78433150  0.28531474  0.65842224     0.77000
C258        C  0.79135392  0.15211352  0.70425024     0.78100
C259        C  0.82728533  0.26858755  0.79364406     0.77200
C260        C  0.63926384  0.85878280  0.03553920     0.86500
C261        C  0.64560649  0.90145733  0.03334069    -0.53700
C262        C  0.62942767  0.91930467  0.00368632     0.09400
C263        C  0.60916521  0.89154572  0.97770769     0.20400
C264        C  0.59639072  0.85294939  0.03303319    -0.54500
C265        C  0.58000984  0.87051288  0.00355589     0.09500
C266        C  0.65546547  0.84544025  0.99753903    -0.54000
C267        C  0.64067497  0.86276395  0.96741675     0.10100
H268        H  0.66147469  0.91649711  0.05402778     0.14600
H269        H  0.59581622  0.90385523  0.95315314     0.00400
H270        H  0.58004615  0.83717571  0.05387157     0.14900
H271        H  0.67934375  0.82659736  0.99373123     0.14700
C272        C  0.65138087  0.14098942  0.03758324     0.86500
C273        C  0.60882852  0.15208139  0.03338549    -0.53700
C274        C  0.59085107  0.13603494  0.00341555     0.09400
C275        C  0.61842226  0.11091798  0.98029222     0.20400
C276        C  0.65128189  0.09810845  0.03764647    -0.54500
C277        C  0.63305286  0.08225648  0.00871521     0.09500
C278        C  0.66849798  0.15305448  0.99996214    -0.54000
C279        C  0.65276562  0.13646219  0.97012210     0.10100
H280        H  0.59441751  0.17141139  0.05220677     0.14600
H281        H  0.60578685  0.09711414  0.95618320     0.00400
H282        H  0.66397000  0.08157360  0.05958750     0.14900
H283        H  0.69035895  0.17421914  0.99674736     0.14700
C284        C  0.35791193  0.86545988  0.05202932     0.86500
C285        C  0.39869327  0.85154300  0.04400906    -0.53700
C286        C  0.41536972  0.86646657  0.01247125     0.09400
C287        C  0.38908342  0.89303333  0.99096720     0.20400
C288        C  0.35945867  0.90851273  0.05069624    -0.54500
C289        C  0.37660561  0.92344247  0.01940388     0.09500
C290        C  0.33774740  0.85473639  0.01584453    -0.54000
C291        C  0.35324789  0.86970863  0.98371423     0.10100
H292        H  0.41379342  0.83293436  0.06253767     0.14600
H293        H  0.40316638  0.90468527  0.96583189     0.00400
H294        H  0.34664177  0.92543496  0.07257040     0.14900
H295        H  0.31375703  0.83583415  0.01494191     0.14700
C296        C  0.36286616  0.14280124  0.95626487     0.86500
C297        C  0.40591752  0.15271450  0.95869442    -0.53700
C298        C  0.42388932  0.13810694  0.98925202     0.09400
C299        C  0.39692051  0.11449317  0.01412728     0.20400
C300        C  0.36341942  0.09986686  0.95745127    -0.54500
C301        C  0.38115657  0.08451885  0.98738614     0.09500
C302        C  0.34546462  0.15453026  0.99368197    -0.54000
C303        C  0.36334428  0.14088270  0.02395499     0.10100
H304        H  0.42152262  0.16813274  0.93715260     0.14600
H305        H  0.41097845  0.10261424  0.03858053     0.00400
H306        H  0.35100440  0.08308074  0.93631452     0.14900
H307        H  0.32145675  0.17360121  0.99606721     0.14700
Zn308      Zn  0.19023170  0.75878677  0.75772645     1.49700
Zn309      Zn  0.25950581  0.81249393  0.77305210     1.49400
Zn310      Zn  0.23739456  0.74731018  0.83020570     1.49100
Zn311      Zn  0.27545277  0.72667045  0.74823237     1.49500
O312        O  0.24121983  0.76096432  0.77706429    -1.84100
O313        O  0.17006701  0.80983399  0.74270181    -0.74700
O314        O  0.27511656  0.83266783  0.82280493    -0.74600
O315        O  0.18546327  0.72623990  0.84588385    -0.74100
O316        O  0.22072147  0.84604719  0.74979213    -0.74800
O317        O  0.15491474  0.73034049  0.79264689    -0.74400
O318        O  0.25514715  0.78923796  0.86357006    -0.74900
O319        O  0.29633147  0.68658302  0.78394522    -0.74300
O320        O  0.30613733  0.81531606  0.74031234    -0.75100
O321        O  0.27221774  0.70423287  0.83926294    -0.74500
O322        O  0.31961438  0.75666916  0.72380082    -0.74900
O323        O  0.24683228  0.70120088  0.70545878    -0.74800
O324        O  0.19067871  0.72921546  0.71114286    -0.74600
C325        C  0.18692632  0.84128313  0.73923054     0.77200
C326        C  0.27155432  0.82033109  0.85608603     0.77600
C327        C  0.15675697  0.71906584  0.82631153     0.76600
C328        C  0.29221327  0.68206880  0.81924969     0.77000
C329        C  0.32713891  0.79175493  0.72305557     0.78100
C330        C  0.21335314  0.70720343  0.69400110     0.77200
C331        C  0.85982581  0.02816480  0.61881546     0.86500
C332        C  0.90290564  0.03028835  0.62349849    -0.53700
C333        C  0.92264341  0.99956922  0.61185306     0.09400
C334        C  0.89745469  0.96853443  0.59583099     0.20400
C335        C  0.85711608  0.02027984  0.57646382    -0.54500
C336        C  0.87628433  0.98873390  0.56352482     0.09500
C337        C  0.84759715  0.99170216  0.63789063    -0.54000
C338        C  0.86751693  0.96085821  0.62721070     0.10100
H339        H  0.91696457  0.05446458  0.63516325     0.14600
H340        H  0.91328937  0.94292895  0.58865893     0.00400
H341        H  0.84451483  0.03961569  0.55729017     0.14900
H342        H  0.82578442  0.99065618  0.65986404     0.14700
C343        C  0.13627491  0.04414087  0.66209059     0.86500
C344        C  0.15078842  0.04084541  0.62124643    -0.53700
C345        C  0.13907583  0.00928683  0.60337184     0.09400
C346        C  0.11469585  0.98293181  0.62847432     0.20400
C347        C  0.09322237  0.03887291  0.66114039    -0.54500
C348        C  0.08182066  0.00743224  0.64328429     0.09500
C349        C  0.15074541  0.00725222  0.67987359    -0.54000
C350        C  0.13912166  0.97507021  0.66276463     0.10100
H351        H  0.16686451  0.06273545  0.60687558     0.14600
H352        H  0.10430462  0.95802250  0.61374610     0.00400
H353        H  0.07321632  0.05953296  0.67209444     0.14900
H354        H  0.16898787  0.00575575  0.70364135     0.14700
C355        C  0.88243789  0.02986952  0.34209260     0.86500
C356        C  0.87440235  0.02521264  0.38467934    -0.53700
C357        C  0.88580656  0.99191651  0.39982440     0.09400
C358        C  0.90739569  0.96684454  0.37084644     0.20400
C359        C  0.92586058  0.02540689  0.33954870    -0.54500
C360        C  0.93959038  0.99214150  0.35366385     0.09500
C361        C  0.86620376  0.99439520  0.32485434    -0.54000
C362        C  0.87955378  0.96153549  0.33880322     0.10100
H363        H  0.86223557  0.04692383  0.40237819     0.14600
H364        H  0.91668250  0.93972410  0.38278746     0.00400
H365        H  0.94424877  0.04769394  0.32934643     0.14900
H366        H  0.84530662  0.99525290  0.30312468     0.14700
C367        C  0.15729988  0.03545132  0.38290864     0.86500
C368        C  0.11651491  0.02761573  0.37130219    -0.53700
C369        C  0.09951475  0.99598950  0.38664048     0.09400
C370        C  0.12662234  0.97577666  0.41386262     0.20400
C371        C  0.15586272  0.03653674  0.42534115    -0.54500
C372        C  0.13936561  0.00604129  0.44176482     0.09500
C373        C  0.17746833  0.99814828  0.37289837    -0.54000
C374        C  0.16192054  0.96712779  0.38941230     0.10100
H375        H  0.10266637  0.04631664  0.35208553     0.14600
H376        H  0.11681136  0.95027169  0.42812158     0.00400
H377        H  0.16702814  0.05971622  0.44125395     0.14900
H378        H  0.19865593  0.99532419  0.35063090     0.14700
Zn379      Zn  0.81359831  0.74571205  0.26099639     1.49700
Zn380      Zn  0.73012240  0.70938482  0.27236075     1.49400
Zn381      Zn  0.74121040  0.79499511  0.24217164     1.49100
Zn382      Zn  0.76502118  0.72831756  0.19089843     1.49500
O383        O  0.76220371  0.74430095  0.24237805    -1.84100
O384        O  0.81626334  0.71646583  0.30843817    -0.74700
O385        O  0.68702410  0.73956762  0.29731378    -0.74600
O386        O  0.77869723  0.83247825  0.26038458    -0.74100
O387        O  0.76128582  0.68678803  0.31499867    -0.74800
O388        O  0.82939067  0.79869114  0.27424559    -0.74400
O389        O  0.69771676  0.79804856  0.27814181    -0.74900
O390        O  0.74471663  0.76618982  0.15568220    -0.74300
O391        O  0.70803146  0.66749238  0.23866677    -0.75100
O392        O  0.72021686  0.80996441  0.19212185    -0.74500
O393        O  0.73225637  0.68450138  0.18384632    -0.74900
O394        O  0.81622578  0.70959416  0.17501725    -0.74800
O395        O  0.85035842  0.71956548  0.22527684    -0.74600
C396        C  0.79457969  0.69385672  0.32632169     0.77200
C397        C  0.67851447  0.77444402  0.29736647     0.77600
C398        C  0.81153109  0.82985486  0.27396475     0.76600
C399        C  0.72436417  0.79525434  0.15996661     0.77000
C400        C  0.71183001  0.66234463  0.20344350     0.78100
C401        C  0.84672416  0.70612475  0.19270066     0.77200
C402        C  0.95445237  0.63893083  0.86426543     0.86500
C403        C  0.95326688  0.59656543  0.85656150    -0.53700
C404        C  0.98311759  0.57643071  0.86972950     0.09400
C405        C  0.01127787  0.60100792  0.89128571     0.20400
C406        C  0.95765507  0.64125562  0.90723689    -0.54500
C407        C  0.98628985  0.62019886  0.92175800     0.09500
C408        C  0.99349738  0.65289903  0.85089963    -0.54000
C409        C  0.02331248  0.63340781  0.86454548     0.10100
H410        H  0.92845854  0.58352588  0.84516574     0.14600
H411        H  0.03552112  0.58480156  0.90217606     0.00400
H412        H  0.94104382  0.66000468  0.92463266     0.14900
H413        H  0.99743364  0.67811957  0.83413589     0.14700
C414        C  0.04874829  0.63190368  0.13964897     0.86500
C415        C  0.04716421  0.58953748  0.14780532    -0.53700
C416        C  0.01646188  0.57153520  0.13396843     0.09400
C417        C  0.99041695  0.59772089  0.11147339     0.20400
C418        C  0.04698061  0.63410038  0.09628138    -0.54500
C419        C  0.01722759  0.61504065  0.08127746     0.09500
C420        C  0.01054727  0.64807923  0.15194054    -0.54000
C421        C  0.98008324  0.63115567  0.13728483     0.10100
H422        H  0.06997193  0.57477531  0.16137484     0.14600
H423        H  0.96545471  0.58290368  0.10057333     0.00400
H424        H  0.06567424  0.65043378  0.07845615     0.14900
H425        H  0.00779825  0.67191796  0.17061995     0.14700
C426        C  0.94545967  0.35189695  0.86881662     0.86500
C427        C  0.94897558  0.34220310  0.91028492    -0.53700
C428        C  0.97780794  0.35991923  0.92761716     0.09400
C429        C  0.00181510  0.38520522  0.90093976     0.20400
C430        C  0.94456969  0.39516612  0.86611725    -0.54500
C431        C  0.97353929  0.41295826  0.88363105     0.09500
C432        C  0.98466533  0.34277989  0.85151425    -0.54000
C433        C  0.01406132  0.35918008  0.86874692     0.10100
H434        H  0.93138232  0.32101051  0.92358722     0.14600
H435        H  0.02623962  0.39867020  0.91399467     0.00400
H436        H  0.92410066  0.41056057  0.85010675     0.14900
H437        H  0.98954658  0.32458033  0.82768743     0.14700
C438        C  0.05852592  0.34916545  0.13995363     0.86500
C439        C  0.05610441  0.34077043  0.09817029    -0.53700
C440        C  0.02603842  0.35679837  0.08093522     0.09400
C441        C  0.00015707  0.37959854  0.10811576     0.20400
C442        C  0.05587858  0.39223038  0.14410417    -0.54500
C443        C  0.02620016  0.40850477  0.12634382     0.09500
C444        C  0.01994432  0.33613046  0.15636659    -0.54000
C445        C  0.98935234  0.35149582  0.13949518     0.10100
H446        H  0.07557203  0.32149539  0.08471088     0.14600
H447        H  0.97532809  0.39255866  0.09496735     0.00400
H448        H  0.07535951  0.40859220  0.16023999     0.14900
H449        H  0.01652724  0.31617341  0.17917213     0.14700
Zn450      Zn  0.28813811  0.19091308  0.24949766     1.49700
Zn451      Zn  0.31003645  0.27392985  0.28289651     1.49400
Zn452      Zn  0.27120879  0.26312472  0.20383097     1.49100
Zn453      Zn  0.22367814  0.24393684  0.27809915     1.49500
O454        O  0.27382203  0.24358889  0.25409808    -1.84100
O455        O  0.33436701  0.18393543  0.27776015    -0.74700
O456        O  0.33329676  0.31565367  0.24866511    -0.74600
O457        O  0.29040236  0.22610910  0.16605891    -0.74100
O458        O  0.35194906  0.23803188  0.30208825    -0.74800
O459        O  0.30175064  0.17378991  0.19697446    -0.74400
O460        O  0.30260799  0.30929807  0.19622373    -0.74900
O461        O  0.18348124  0.26076687  0.24245152    -0.74300
O462        O  0.28149608  0.30180080  0.32648092    -0.75100
O463        O  0.21846354  0.27766706  0.19267556    -0.74500
O464        O  0.22277212  0.28165118  0.31842094    -0.74900
O465        O  0.21018198  0.19428286  0.30251134    -0.74800
O466        O  0.25100965  0.15591759  0.27470277    -0.74600
C467        C  0.35714036  0.20274316  0.29682504     0.77200
C468        C  0.32635218  0.32692224  0.21558363     0.77600
C469        C  0.30222944  0.19234165  0.16661294     0.76600
C470        C  0.18666036  0.27524527  0.20996860     0.77000
C471        C  0.24599768  0.30258675  0.33492861     0.78100
C472        C  0.22369004  0.16143752  0.29777589     0.77200
C473        C  0.15854805  0.32828724  0.17719876    -0.05800
C474        C  0.15358670  0.29232819  0.19227941     0.00200
C475        C  0.11933220  0.27310548  0.18697623    -0.08400
C476        C  0.08966815  0.29231834  0.16948935    -0.05800
C477        C  0.09339334  0.32989042  0.15659506     0.00200
C478        C  0.13039382  0.34622591  0.15679784    -0.08300
C479        C  0.14352261  0.38073947  0.13481667     0.62100
H480        H  0.18581465  0.34192779  0.17987774     0.12800
H481        H  0.06356424  0.27741344  0.16509306     0.12800
C482        C  0.11485619  0.23216935  0.19832368     0.62300
F483        F  0.14581096  0.41100599  0.15861649    -0.22900
F484        F  0.12049545  0.38967597  0.10567887    -0.20200
F485        F  0.17922317  0.37430506  0.11912462    -0.19900
F486        F  0.11484619  0.22890838  0.23675931    -0.19900
F487        F  0.14454288  0.21130336  0.18319301    -0.20200
F488        F  0.08138559  0.21706195  0.18591494    -0.22900
C489        C  0.97686893  0.34869593  0.03411342    -0.05800
C490        C  0.01582239  0.35055766  0.04102118     0.00200
C491        C  0.04193900  0.34975128  0.00992595    -0.08400
C492        C  0.02735128  0.35006214  0.97379008    -0.05800
C493        C  0.98846040  0.35289251  0.96715903     0.00200
C494        C  0.96237817  0.35134318  0.99809112    -0.08300
C495        C  0.91951311  0.35335532  0.99462905     0.62100
H496        H  0.95726699  0.34588172  0.05765625     0.12800
H497        H  0.04666610  0.34851077  0.94990727     0.12800
C498        C  0.08485278  0.34824980  0.01318237     0.62300
F499        F  0.90161583  0.36193335  0.02837381    -0.22900
F500        F  0.90580764  0.31907083  0.98335874    -0.20200
F501        F  0.90954731  0.38094714  0.96962325    -0.19900
F502        F  0.09575904  0.31263915  0.02399894    -0.19900
F503        F  0.09715501  0.37432439  0.03832976    -0.20200
F504        F  0.10333551  0.35607160  0.97947373    -0.22900
C505        C  0.01666053  0.51220629  0.09806083    -0.05800
C506        C  0.01427638  0.52960579  0.13301431     0.00200
C507        C  0.01268421  0.50686731  0.16561944    -0.08400
C508        C  0.01580449  0.46756514  0.16202763    -0.05800
C509        C  0.01941739  0.45009586  0.12708533     0.00200
C510        C  0.01965029  0.47287025  0.09440677    -0.08300
C511        C  0.02522773  0.45637887  0.05580370     0.62100
H512        H  0.01749307  0.52995605  0.07343036     0.12800
H513        H  0.01634434  0.45009094  0.18680471     0.12800
C514        C  0.00741013  0.52372933  0.20413157     0.62300
F515        F  0.03294550  0.48387035  0.02929655    -0.22900
F516        F  0.99285065  0.43763197  0.04579604    -0.20200
F517        F  0.05557045  0.43199237  0.05533327    -0.19900
F518        F  0.97864655  0.55014382  0.20397880    -0.19900
F519        F  0.04069184  0.54041662  0.21469492    -0.20200
F520        F  0.99776067  0.49670258  0.23059069    -0.22900
C521        C  0.97674226  0.47143760  0.84563941    -0.05800
C522        C  0.97890747  0.45474111  0.88109795     0.00200
C523        C  0.98365141  0.47828869  0.91249078    -0.08400
C524        C  0.98601874  0.51750948  0.90696555    -0.05800
C525        C  0.98290777  0.53425519  0.87160575     0.00200
C526        C  0.97852701  0.51061947  0.84011320    -0.08300
C527        C  0.97675323  0.52583987  0.80051744     0.62100
H528        H  0.97308498  0.45321062  0.82195339     0.12800
H529        H  0.98944264  0.53568452  0.93072713     0.12800
C530        C  0.98451753  0.46297453  0.95201621     0.62300
F531        F  0.94291290  0.54430221  0.79527418    -0.22900
F532        F  0.97937856  0.49750994  0.77427646    -0.20200
F533        F  0.00647576  0.55011890  0.79363157    -0.19900
F534        F  0.01916610  0.44635382  0.95825822    -0.19900
F535        F  0.95595628  0.43711167  0.95784296    -0.20200
F536        F  0.97903898  0.49111055  0.97806858    -0.22900
C537        C  0.97261921  0.61333199  0.02823134    -0.05800
C538        C  0.01029015  0.61307272  0.04004878     0.00200
C539        C  0.03979782  0.61100918  0.01226490    -0.08400
C540        C  0.03074584  0.61601398  0.97452542    -0.05800
C541        C  0.99311652  0.61686768  0.96279457     0.00200
C542        C  0.96349833  0.61247430  0.99023057    -0.08300
C543        C  0.92261867  0.60420146  0.98060571     0.62100
H544        H  0.94975657  0.61403171  0.04889146     0.12800
H545        H  0.05358223  0.61794512  0.95383275     0.12800
C546        C  0.08046970  0.60052125  0.02055764     0.62300
F547        F  0.90412411  0.58523094  0.00956456    -0.22900
F548        F  0.92110225  0.58157205  0.94944829    -0.20200
F549        F  0.90317116  0.63723511  0.97441404    -0.19900
F550        F  0.08272126  0.57958675  0.05302748    -0.19900
F551        F  0.10216362  0.63260539  0.02323475    -0.20200
F552        F  0.09571834  0.57868255  0.99204829    -0.22900
C553        C  0.90099286  0.70252277  0.14840609    -0.05800
C554        C  0.87812423  0.68470605  0.17539547     0.00200
C555        C  0.88516084  0.64681983  0.18520303    -0.08400
C556        C  0.91727394  0.62868299  0.16950069    -0.05800
C557        C  0.94191200  0.64746666  0.14444824     0.00200
C558        C  0.93300354  0.68460715  0.13263399    -0.08300
C559        C  0.95776144  0.70620243  0.10465052     0.62100
H560        H  0.89442635  0.73126222  0.14090824     0.12800
H561        H  0.92446205  0.60044638  0.17814504     0.12800
C562        C  0.85874476  0.62598089  0.21221577     0.62300
F563        F  0.96769477  0.68360253  0.07484590    -0.22900
F564        F  0.99017533  0.71868717  0.12140154    -0.20200
F565        F  0.93899672  0.73719553  0.09068588    -0.19900
F566        F  0.82261028  0.62537750  0.19816576    -0.19900
F567        F  0.85765269  0.64378919  0.24640532    -0.20200
F568        F  0.87028952  0.58926833  0.21777813    -0.22900
C569        C  0.21310043  0.06932137  0.35239474    -0.05800
C570        C  0.17509965  0.07110954  0.36534842     0.00200
C571        C  0.15545964  0.10590721  0.36071083    -0.08400
C572        C  0.17180743  0.13352007  0.33711880    -0.05800
C573        C  0.20814248  0.12954952  0.32062777     0.00200
C574        C  0.22980610  0.09716791  0.32954814    -0.08300
C575        C  0.27049975  0.09140679  0.31550486     0.62100
H576        H  0.23026655  0.04572024  0.36039473     0.12800
H577        H  0.15595005  0.15905763  0.33204628     0.12800
C578        C  0.11785096  0.11668906  0.37964914     0.62300
F579        F  0.28699021  0.05974037  0.33075071    -0.22900
F580        F  0.29241108  0.12188072  0.32497587    -0.20200
F581        F  0.27117240  0.08694969  0.27718685    -0.19900
F582        F  0.10655361  0.09292945  0.40826229    -0.19900
F583        F  0.08993207  0.11775641  0.35330882    -0.20200
F584        F  0.12094600  0.15208530  0.39500174    -0.22900
C585        C  0.82552670  0.91886173  0.33075274    -0.05800
C586        C  0.86450534  0.92509609  0.32534057     0.00200
C587        C  0.88618843  0.89956893  0.30324968    -0.08400
C588        C  0.86787653  0.86860033  0.28740898    -0.05800
C589        C  0.82861133  0.86328919  0.29153276     0.00200
C590        C  0.80696468  0.88859677  0.31410562    -0.08300
C591        C  0.76452147  0.88383018  0.32113348     0.62100
H592        H  0.80938232  0.93893704  0.34729090     0.12800
H593        H  0.88391780  0.84896556  0.27026996     0.12800
C594        C  0.92765714  0.90636304  0.29374808     0.62300
F595        F  0.75060579  0.90822595  0.34813573    -0.22900
F596        F  0.75675106  0.84766559  0.33329714    -0.20200
F597        F  0.74545337  0.89102740  0.28864225    -0.19900
F598        F  0.94796775  0.90996706  0.32588115    -0.19900
F599        F  0.93087412  0.93869577  0.27261891    -0.20200
F600        F  0.94363788  0.87723794  0.27328898    -0.22900
C601        C  0.99480148  0.96256407  0.38604902    -0.05800
C602        C  0.98164327  0.98376722  0.35586563     0.00200
C603        C  0.00958676  0.99770473  0.33014324    -0.08400
C604        C  0.04751051  0.99864396  0.34069865    -0.05800
C605        C  0.05988158  0.98438041  0.37506444     0.00200
C606        C  0.03351130  0.96115655  0.39550083    -0.08300
C607        C  0.04484479  0.93297333  0.42511744     0.62100
H608        H  0.97465719  0.94674392  0.40242850     0.12800
H609        H  0.06794783  0.01004440  0.32070447     0.12800
C610        C  0.00233331  0.00981355  0.29044770     0.62300
F611        F  0.01475144  0.91073774  0.43701215    -0.22900
F612        F  0.05805981  0.95107185  0.45604468    -0.20200
F613        F  0.07194841  0.90885190  0.41036359    -0.19900
F614        F  0.00664358  0.04825721  0.28727961    -0.19900
F615        F  0.96700585  0.99967733  0.27914786    -0.20200
F616        F  0.02827042  0.99265287  0.26639561    -0.22900
C617        C  0.10656088  0.01123983  0.54375932    -0.05800
C618        C  0.14083121  0.00596460  0.56196904     0.00200
C619        C  0.17449047  0.00035203  0.54004390    -0.08400
C620        C  0.17146975  0.99659366  0.50115786    -0.05800
C621        C  0.13721468  0.00275182  0.48303425     0.00200
C622        C  0.10452597  0.01244433  0.50474638    -0.08300
C623        C  0.06808898  0.02811823  0.48929200     0.62100
H624        H  0.08130629  0.01738356  0.56022731     0.12800
H625        H  0.19695104  0.99163702  0.48432044     0.12800
C626        C  0.21436316  0.99960583  0.55486757     0.62300
F627        F  0.03758857  0.00713199  0.50252673    -0.22900
F628        F  0.06746932  0.02867711  0.45094495    -0.20200
F629        F  0.06370766  0.06467604  0.50142552    -0.19900
F630        F  0.23033516  0.96470950  0.54823532    -0.19900
F631        F  0.21596945  0.00722066  0.59244969    -0.20200
F632        F  0.23603167  0.02636815  0.53611446    -0.22900
C633        C  0.91093154  0.97051006  0.46117256    -0.05800
C634        C  0.87991822  0.98319114  0.44103869     0.00200
C635        C  0.84537371  0.98960042  0.46143606    -0.08400
C636        C  0.84544634  0.98918412  0.50091578    -0.05800
C637        C  0.87776141  0.97986360  0.52158054     0.00200
C638        C  0.91005408  0.96640191  0.50056347    -0.08300
C639        C  0.94329139  0.94651017  0.51794552     0.62100
H640        H  0.93659803  0.96465061  0.44579035     0.12800
H641        H  0.81933561  0.99618605  0.51590631     0.12800
C642        C  0.80721108  0.99582818  0.44372076     0.62300
F643        F  0.97058514  0.93605477  0.49167709    -0.22900
F644        F  0.93079511  0.91389046  0.53525741    -0.20200
F645        F  0.96068077  0.96962392  0.54277820    -0.19900
F646        F  0.80819544  0.99183355  0.40544187    -0.19900
F647        F  0.79403072  0.03137576  0.45246008    -0.20200
F648        F  0.78168499  0.96968945  0.45802633    -0.22900
C649        C  0.98061995  0.97021977  0.63695792    -0.05800
C650        C  0.96447256  0.99826404  0.61472707     0.00200
C651        C  0.98765182  0.02757687  0.60000554    -0.08400
C652        C  0.02532283  0.02967257  0.61094107    -0.05800
C653        C  0.04160495  0.00200588  0.63337756     0.00200
C654        C  0.01914193  0.97156593  0.64661244    -0.08300
C655        C  0.03506975  0.94208662  0.67258724     0.62100
H656        H  0.96241745  0.94812343  0.64795798     0.12800
H657        H  0.04253826  0.05315035  0.60136280     0.12800
C658        C  0.97381523  0.05758619  0.57323433     0.62300
F659        F  0.00702879  0.91860131  0.68694545    -0.22900
F660        F  0.05217766  0.95928882  0.70223562    -0.20200
F661        F  0.06142603  0.92026926  0.65351396    -0.19900
F662        F  0.96628629  0.09026553  0.59266981    -0.19900
F663        F  0.94173730  0.04681728  0.55480580    -0.20200
F664        F  0.00147798  0.06501471  0.54624736    -0.22900
C665        C  0.17556315  0.87528254  0.68101772    -0.05800
C666        C  0.16854646  0.87242504  0.71949626     0.00200
C667        C  0.14849162  0.90107294  0.73835992    -0.08400
C668        C  0.13760381  0.93307202  0.71810060    -0.05800
C669        C  0.14646730  0.93730047  0.67972738     0.00200
C670        C  0.16510012  0.90732875  0.66055892    -0.08300
C671        C  0.17705499  0.90984319  0.61973567     0.62100
H672        H  0.19098605  0.85263352  0.66741961     0.12800
H673        H  0.12301669  0.95576585  0.73245394     0.12800
C674        C  0.13912822  0.89767758  0.77971727     0.62300
F675        F  0.19939786  0.87973230  0.60857108    -0.22900
F676        F  0.19800971  0.94189926  0.61403020    -0.20200
F677        F  0.14575661  0.91040710  0.59751500    -0.19900
F678        F  0.17216610  0.89454138  0.79941965    -0.19900
F679        F  0.11721543  0.86603320  0.78613089    -0.20200
F680        F  0.11918379  0.92853196  0.79299182    -0.22900
C681        C  0.07162027  0.68015579  0.88200028    -0.05800
C682        C  0.06217224  0.64926465  0.85983461     0.00200
C683        C  0.08618886  0.63951668  0.82923266    -0.08400
C684        C  0.11771896  0.66230113  0.82043652    -0.05800
C685        C  0.12593897  0.69444262  0.84119276     0.00200
C686        C  0.10338146  0.70297127  0.87325416    -0.08300
C687        C  0.11191613  0.73681032  0.89701785     0.62100
H688        H  0.05274917  0.68732113  0.90520994     0.12800
H689        H  0.13559995  0.65592402  0.79625086     0.12800
C690        C  0.07737684  0.60631422  0.80486391     0.62300
F691        F  0.08438078  0.74231964  0.92466905    -0.22900
F692        F  0.11367969  0.76880472  0.87500174    -0.20200
F693        F  0.14630257  0.73161445  0.91392425    -0.19900
F694        F  0.04423604  0.61325718  0.78642352    -0.19900
F695        F  0.07325131  0.57442795  0.82676322    -0.20200
F696        F  0.10583998  0.59968897  0.77838289    -0.22900
C697        C  0.34105394  0.12708358  0.08896990    -0.05800
C698        C  0.35225461  0.15384930  0.06199293     0.00200
C699        C  0.34854683  0.19258713  0.07044895    -0.08400
C700        C  0.33104007  0.20286312  0.10424291    -0.05800
C701        C  0.31904089  0.17650121  0.13132424     0.00200
C702        C  0.32488653  0.13761305  0.12393287    -0.08300
C703        C  0.31346699  0.10722049  0.15190460     0.62100
H704        H  0.34402870  0.09773463  0.08195194     0.12800
H705        H  0.32780688  0.23258761  0.10984919     0.12800
C706        C  0.36282967  0.22487509  0.04578483     0.62300
F707        F  0.31882882  0.07156247  0.13748510    -0.22900
F708        F  0.27551626  0.11095148  0.16184822    -0.20200
F709        F  0.33517902  0.11003090  0.18330779    -0.19900
F710        F  0.33214199  0.24450459  0.03245607    -0.19900
F711        F  0.38548153  0.21388517  0.01586046    -0.20200
F712        F  0.38424413  0.24891010  0.06688224    -0.22900
C713        C  0.29438328  0.86777383  0.94734189    -0.05800
C714        C  0.33429633  0.86432791  0.94703733     0.00200
C715        C  0.35315742  0.85164780  0.91377918    -0.08400
C716        C  0.33102059  0.83982627  0.88390531    -0.05800
C717        C  0.29135713  0.83995579  0.88604530     0.00200
C718        C  0.27253599  0.85558032  0.91743499    -0.08300
C719        C  0.22973801  0.85971374  0.91893163     0.62100
H720        H  0.28018439  0.87886625  0.97206530     0.12800
H721        H  0.34457844  0.82878056  0.85881598     0.12800
C722        C  0.39599208  0.84918798  0.90919963     0.62300
F723        F  0.21710559  0.87770225  0.95106497    -0.22900
F724        F  0.21281927  0.82478718  0.91801058    -0.20200
F725        F  0.21836950  0.88064207  0.88858083    -0.19900
F726        F  0.41118892  0.83081649  0.93925003    -0.19900
F727        F  0.41105349  0.88482033  0.90572688    -0.20200
F728        F  0.40698910  0.82952531  0.87750230    -0.22900
C729        C  0.38318300  0.03048633  0.03118319    -0.05800
C730        C  0.38399656  0.04303843  0.99408527     0.00200
C731        C  0.38642015  0.01564541  0.96533272    -0.08400
C732        C  0.38098097  0.97768990  0.97495156    -0.05800
C733        C  0.38112012  0.96497643  0.01220131     0.00200
C734        C  0.38571019  0.99235421  0.04062383    -0.08300
C735        C  0.39634010  0.98363310  0.08042734     0.62100
H736        H  0.38172777  0.05060176  0.05357132     0.12800
H737        H  0.37764036  0.95791337  0.95255005     0.12800
C738        C  0.39683475  0.02418659  0.92474262     0.62300
F739        F  0.41991250  0.01127214  0.09380010    -0.22900
F740        F  0.41624718  0.95051188  0.08241629    -0.20200
F741        F  0.36413229  0.98219420  0.10319273    -0.19900
F742        F  0.41700788  0.05728094  0.92081292    -0.19900
F743        F  0.36435631  0.02590128  0.90404615    -0.20200
F744        F  0.41976295  0.99596468  0.91019481    -0.22900
C745        C  0.48957916  0.13437483  0.96218667    -0.05800
C746        C  0.46641300  0.13984957  0.99405160     0.00200
C747        C  0.48464313  0.14568490  0.02857211    -0.08400
C748        C  0.52455295  0.14315245  0.02979247    -0.05800
C749        C  0.54810436  0.13892716  0.99769264     0.00200
C750        C  0.52953151  0.13594988  0.96270019    -0.08300
C751        C  0.54942168  0.13558325  0.92477297     0.62100
H752        H  0.47606728  0.12911926  0.93592890     0.12800
H753        H  0.53743614  0.14422668  0.05682168     0.12800
C754        C  0.46364158  0.15551771  0.06465958     0.62300
F755        F  0.52771468  0.15361543  0.89843844    -0.22900
F756        F  0.55527667  0.09896868  0.91337325    -0.20200
F757        F  0.58308738  0.15450624  0.92539713    -0.19900
F758        F  0.45321964  0.12317246  0.08367753    -0.19900
F759        F  0.43215253  0.17690056  0.05777891    -0.20200
F760        F  0.48629140  0.17654189  0.08758973    -0.22900
C761        C  0.67784360  0.80705255  0.06528941    -0.05800
C762        C  0.65660660  0.84024394  0.07020609     0.00200
C763        C  0.65431085  0.85562780  0.10693600    -0.08400
C764        C  0.67845199  0.84126895  0.13429206    -0.05800
C765        C  0.70287824  0.81057848  0.12773302     0.00200
C766        C  0.70236594  0.79295571  0.09217424    -0.08300
C767        C  0.72753121  0.75964164  0.08144196     0.62100
H768        H  0.67479719  0.79114893  0.04014640     0.12800
H769        H  0.67725194  0.85386151  0.16174858     0.12800
C770        C  0.62682476  0.88609021  0.12027394     0.62300
F771        F  0.72399589  0.74956174  0.04444583    -0.22900
F772        F  0.71785170  0.72861622  0.10299474    -0.20200
F773        F  0.76517195  0.76883674  0.08621092    -0.19900
F774        F  0.59955061  0.89544176  0.09507771    -0.19900
F775        F  0.64696648  0.91807180  0.12867127    -0.20200
F776        F  0.60786612  0.87379480  0.15234826    -0.22900
C777        C  0.51915191  0.83481618  0.00053816    -0.05800
C778        C  0.53757695  0.86992333  0.99956212     0.00200
C779        C  0.51475046  0.90290239  0.00046498    -0.08400
C780        C  0.47516355  0.89946663  0.00126371    -0.05800
C781        C  0.45699136  0.86474078  0.00434003     0.00200
C782        C  0.47924620  0.83147719  0.00314107    -0.08300
C783        C  0.46305313  0.79198364  0.00424034     0.62100
H784        H  0.53628581  0.80952309  0.00034833     0.12800
H785        H  0.45781717  0.92451049  0.00253357     0.12800
C786        C  0.53115144  0.94160578  0.00551965     0.62300
F787        F  0.47717316  0.77212175  0.97387041    -0.22900
F788        F  0.42400510  0.79094627  0.00302709    -0.20200
F789        F  0.47411156  0.77413559  0.03654466    -0.19900
F790        F  0.55298155  0.95159826  0.97465976    -0.19900
F791        F  0.55232607  0.94119184  0.03722546    -0.20200
F792        F  0.50352790  0.96896675  0.01027051    -0.22900
C793        C  0.62005365  0.98007994  0.03549424    -0.05800
C794        C  0.62842386  0.96151777  0.00167550     0.00200
C795        C  0.63507812  0.98373991  0.96889322    -0.08400
C796        C  0.63490265  0.02321129  0.97223244    -0.05800
C797        C  0.62694455  0.04107083  0.00627686     0.00200
C798        C  0.61620970  0.01902766  0.03774669    -0.08300
C799        C  0.59885946  0.03470136  0.07372351     0.62100
H800        H  0.61410361  0.96371971  0.06052831     0.12800
H801        H  0.64149118  0.04057795  0.94812444     0.12800
C802        C  0.64374893  0.96718311  0.93068969     0.62300
F803        F  0.56832746  0.01277454  0.08523701    -0.22900
F804        F  0.58533816  0.07087397  0.06959659    -0.20200
F805        F  0.62553512  0.03396022  0.10127625    -0.19900
F806        F  0.61112119  0.95332608  0.91556422    -0.19900
F807        F  0.67027259  0.93912347  0.93329131    -0.20200
F808        F  0.65837728  0.99371001  0.90596211    -0.22900
C809        C  0.84837468  0.32134848  0.83118493    -0.05800
C810        C  0.85786376  0.28727882  0.81386435     0.00200
C811        C  0.89470374  0.27253104  0.81745181    -0.08400
C812        C  0.92109458  0.29356188  0.83725137    -0.05800
C813        C  0.91290617  0.32985292  0.85149406     0.00200
C814        C  0.87435965  0.34203329  0.85155749    -0.08300
C815        C  0.85818520  0.37563443  0.87268346     0.62100
H816        H  0.81974447  0.33206348  0.82888136     0.12800
H817        H  0.94853958  0.28123425  0.84179033     0.12800
C818        C  0.90616759  0.23479723  0.80101502     0.62300
F819        F  0.85650840  0.40625035  0.84891660    -0.22900
F820        F  0.87883616  0.38450735  0.90345696    -0.20200
F821        F  0.82172653  0.36798469  0.88581181    -0.19900
F822        F  0.90613292  0.23681226  0.76249871    -0.19900
F823        F  0.88104917  0.20734863  0.81327409    -0.20200
F824        F  0.94218039  0.22407230  0.81127789    -0.22900
C825        C  0.65403180  0.18370550  0.92041101    -0.05800
C826        C  0.66510720  0.14781032  0.93200432     0.00200
C827        C  0.69041704  0.12660340  0.90907850    -0.08400
C828        C  0.70112983  0.14103506  0.87379465    -0.05800
C829        C  0.69016618  0.17706265  0.86238176     0.00200
C830        C  0.66557106  0.19867926  0.88577437    -0.08300
C831        C  0.65149593  0.23752108  0.87484628     0.62100
H832        H  0.63642901  0.20032985  0.93927586     0.12800
H833        H  0.72046093  0.12502008  0.85602795     0.12800
C834        C  0.70936052  0.09039354  0.92096323     0.62300
F835        F  0.62093520  0.24873309  0.89713853    -0.22900
F836        F  0.63982557  0.23763808  0.83830288    -0.20200
F837        F  0.68018508  0.26347755  0.87875984    -0.19900
F838        F  0.70188169  0.08093898  0.95776510    -0.19900
F839        F  0.74824604  0.09410160  0.91638677    -0.20200
F840        F  0.69743399  0.06150121  0.89861175    -0.22900
C841        C  0.79145985  0.11012879  0.64951207    -0.05800
C842        C  0.80748892  0.11997459  0.68342950     0.00200
C843        C  0.83783608  0.09891283  0.69698018    -0.08400
C844        C  0.85270415  0.06975515  0.67489485    -0.05800
C845        C  0.83944498  0.06139088  0.63875328     0.00200
C846        C  0.80584379  0.08035659  0.62731776    -0.08300
C847        C  0.78310690  0.06926825  0.59373403     0.62100
H848        H  0.76727211  0.12621838  0.64042379     0.12800
H849        H  0.87518707  0.05287720  0.68623200     0.12800
C850        C  0.85380757  0.10689155  0.73506276     0.62300
F851        F  0.74615338  0.08227183  0.59685420    -0.22900
F852        F  0.78100980  0.03066496  0.59071930    -0.20200
F853        F  0.79918463  0.08491403  0.56172775    -0.19900
F854        F  0.82496915  0.10568418  0.76194545    -0.19900
F855        F  0.87018738  0.14212004  0.73493841    -0.20200
F856        F  0.88110593  0.08094550  0.74481396    -0.22900
C857        C  0.94367187  0.29906917  0.14225988    -0.05800
C858        C  0.95047664  0.33735873  0.14820004     0.00200
C859        C  0.92227894  0.35943834  0.16609954    -0.08400
C860        C  0.88878101  0.34178565  0.17910911    -0.05800
C861        C  0.88286018  0.30265592  0.17594881     0.00200
C862        C  0.91043294  0.28109773  0.15576552    -0.08300
C863        C  0.90591015  0.23929312  0.14914300     0.62100
H864        H  0.96569122  0.28294290  0.12808558     0.12800
H865        H  0.86743410  0.35863914  0.19332427     0.12800
C866        C  0.92847621  0.40083081  0.17382089     0.62300
F867        F  0.93573644  0.22464719  0.12797306    -0.22900
F868        F  0.87299913  0.23281956  0.13008857    -0.20200
F869        F  0.90461792  0.22032394  0.18292071    -0.19900
F870        F  0.93372220  0.42037569  0.14074345    -0.19900
F871        F  0.96002736  0.40498509  0.19542578    -0.20200
F872        F  0.89787262  0.41682082  0.19276632    -0.22900
C873        C  0.72829457  0.17576646  0.10593895    -0.05800
C874        C  0.70623052  0.18425388  0.13780102     0.00200
C875        C  0.66705249  0.17459125  0.13817235    -0.08400
C876        C  0.65096721  0.16140098  0.10513130    -0.05800
C877        C  0.67241120  0.15567542  0.07195069     0.00200
C878        C  0.71291947  0.15895805  0.07419047    -0.08300
C879        C  0.74193706  0.14492388  0.04520304     0.62100
H880        H  0.75842268  0.18158693  0.10613684     0.12800
H881        H  0.62117442  0.15455744  0.10554603     0.12800
C882        C  0.64206914  0.17675105  0.17336207     0.62300
F883        F  0.77357874  0.13099275  0.06271853    -0.22900
F884        F  0.75342218  0.17440612  0.02236407    -0.20200
F885        F  0.72857554  0.11595811  0.02390610    -0.19900
F886        F  0.63365680  0.21377733  0.18146791    -0.19900
F887        F  0.66044289  0.16037063  0.20294972    -0.20200
F888        F  0.60811737  0.15791478  0.16947706    -0.22900
C889        C  0.83328638  0.08192357  0.34150147    -0.05800
C890        C  0.86528018  0.06549774  0.32368074     0.00200
C891        C  0.87576826  0.08000920  0.28738305    -0.08400
C892        C  0.85943765  0.11398746  0.27507111    -0.05800
C893        C  0.83002126  0.13189722  0.29498151     0.00200
C894        C  0.81547684  0.11447503  0.32821713    -0.08300
C895        C  0.78071053  0.12915817  0.34981336     0.62100
H896        H  0.82080943  0.06837583  0.36572994     0.12800
H897        H  0.86945543  0.12656320  0.24904516     0.12800
C898        C  0.90293527  0.06099166  0.25987575     0.62300
F899        F  0.76792116  0.10418138  0.37704233    -0.22900
F900        F  0.75116768  0.13508100  0.32582853    -0.20200
F901        F  0.78956727  0.16228673  0.36751022    -0.19900
F902        F  0.89339402  0.06923651  0.22348034    -0.19900
F903        F  0.90178214  0.02252401  0.26310682    -0.20200
F904        F  0.93923102  0.07387036  0.26514134    -0.22900
C905        C  0.21583128  0.87974970  0.35851959    -0.05800
C906        C  0.18906755  0.86242158  0.33572276     0.00200
C907        C  0.15173553  0.87715644  0.33503284    -0.08400
C908        C  0.14360742  0.91053634  0.35459166    -0.05800
C909        C  0.17115212  0.92905994  0.37511209     0.00200
C910        C  0.20746146  0.91279209  0.37844827    -0.08300
C911        C  0.23747580  0.93059232  0.40227084     0.62100
H912        H  0.24400308  0.86775827  0.35976629     0.12800
H913        H  0.11600909  0.92351855  0.35248729     0.12800
C914        C  0.12108175  0.85901606  0.31246565     0.62300
F915        F  0.26735573  0.90624781  0.40828099    -0.22900
F916        F  0.22195047  0.94030146  0.43670601    -0.20200
F917        F  0.25173527  0.96240037  0.38475321    -0.19900
F918        F  0.11343151  0.82347946  0.32636392    -0.19900
F919        F  0.13298551  0.85660972  0.27550389    -0.20200
F920        F  0.08761880  0.87937821  0.31399430    -0.22900
C921        C  0.33826818  0.83053342  0.15392759    -0.05800
C922        C  0.30050071  0.81951749  0.15207910     0.00200
C923        C  0.28026398  0.82706388  0.11960154    -0.08400
C924        C  0.29951927  0.84364481  0.08892888    -0.05800
C925        C  0.33887561  0.85146088  0.08884599     0.00200
C926        C  0.35755905  0.84805206  0.12383480    -0.08300
C927        C  0.39669058  0.86257493  0.13318217     0.62100
H928        H  0.35295533  0.82564248  0.17966257     0.12800
H929        H  0.28321217  0.85099324  0.06496903     0.12800
C930        C  0.23850538  0.81764338  0.11750747     0.62300
F931        F  0.39402342  0.88347567  0.16560909    -0.22900
F932        F  0.41285813  0.88544564  0.10641775    -0.20200
F933        F  0.42063137  0.83248581  0.13917572    -0.19900
F934        F  0.21866384  0.83441380  0.14675551    -0.19900
F935        F  0.23395967  0.77920856  0.11973096    -0.20200
F936        F  0.22311435  0.82992263  0.08446988    -0.22900
C937        C  0.10955687  0.67091206  0.13866663    -0.05800
C938        C  0.08103421  0.65202521  0.15985146     0.00200
C939        C  0.08250121  0.65454178  0.19987670    -0.08400
C940        C  0.11114421  0.67611569  0.21575682    -0.05800
C941        C  0.13838559  0.69544928  0.19433622     0.00200
C942        C  0.13737881  0.69330820  0.15496760    -0.08300
C943        C  0.16430923  0.71596645  0.12991073     0.62100
H944        H  0.11086578  0.66839842  0.10890218     0.12800
H945        H  0.11255897  0.67743343  0.24592999     0.12800
C946        C  0.05561344  0.63648755  0.22886187     0.62300
F947        F  0.15340284  0.71599747  0.09308788    -0.22900
F948        F  0.20048824  0.70113450  0.13097767    -0.20200
F949        F  0.16464112  0.75283874  0.14175675    -0.19900
F950        F  0.07639373  0.61389550  0.25231677    -0.19900
F951        F  0.02724178  0.61476051  0.21501105    -0.20200
F952        F  0.03857411  0.66455165  0.24994305    -0.22900
C953        C  0.28738957  0.16874704  0.88188757    -0.05800
C954        C  0.30196891  0.20264802  0.86767677     0.00200
C955        C  0.33492523  0.21768106  0.88394043    -0.08400
C956        C  0.35349614  0.19664461  0.91131752    -0.05800
C957        C  0.34066447  0.16128673  0.92417041     0.00200
C958        C  0.30450903  0.14884644  0.91126636    -0.08300
C959        C  0.28211750  0.11552988  0.92720635     0.62100
H960        H  0.26176836  0.15785451  0.86999294     0.12800
H961        H  0.37780520  0.20901280  0.92399267     0.12800
C962        C  0.34998399  0.25660782  0.87407177     0.62300
F963        F  0.24359668  0.12068881  0.92263501    -0.22900
F964        F  0.28698142  0.11088773  0.96501795    -0.20200
F965        F  0.29252951  0.08314745  0.90848335    -0.19900
F966        F  0.32071702  0.28238814  0.87578897    -0.19900
F967        F  0.36637727  0.25654897  0.83863262    -0.20200
F968        F  0.37721581  0.26843781  0.89848279    -0.22900
C969        C  0.06172278  0.30902708  0.86535686    -0.05800
C970        C  0.05325805  0.34706915  0.85962694     0.00200
C971        C  0.07949960  0.37034003  0.84042130    -0.08400
C972        C  0.11312934  0.35412923  0.82617317    -0.05800
C973        C  0.12077480  0.31530556  0.82946917     0.00200
C974        C  0.09492715  0.29239629  0.85048273    -0.08300
C975        C  0.10118769  0.25059391  0.85660630     0.62100
H976        H  0.04090491  0.29201549  0.88038989     0.12800
H977        H  0.13322618  0.37181006  0.81105022     0.12800
C978        C  0.07106330  0.41149181  0.83310879     0.62300
F979        F  0.07136225  0.23410148  0.87645415    -0.22900
F980        F  0.13363920  0.24508280  0.87674566    -0.20200
F981        F  0.10461092  0.23246917  0.82265268    -0.19900
F982        F  0.03860344  0.41466677  0.81255729    -0.19900
F983        F  0.10031143  0.42903432  0.81336631    -0.20200
F984        F  0.06590530  0.43016471  0.86650699    -0.22900
C985        C  0.15494972  0.14962360  0.68182307    -0.05800
C986        C  0.17007426  0.14839595  0.71753099     0.00200
C987        C  0.17027192  0.11379908  0.73706379    -0.08400
C988        C  0.15821390  0.08119973  0.71856469    -0.05800
C989        C  0.14600150  0.08163639  0.68120285     0.00200
C990        C  0.14116304  0.11768316  0.66388890    -0.08300
C991        C  0.12293750  0.12577099  0.62651468     0.62100
H992        H  0.15368651  0.17649255  0.66749365     0.01600
H993        H  0.15764425  0.05531685  0.73411025     0.12800
C994        C  0.18398711  0.11088288  0.77682218     0.62300
F995        F  0.15102962  0.13479885  0.60038266    -0.22900
F996        F  0.09872479  0.15623832  0.63021828    -0.20200
F997        F  0.10162114  0.09685442  0.61296743    -0.19900
F998        F  0.16109776  0.13248930  0.80013058    -0.19900
F999        F  0.22103101  0.12330090  0.77832645    -0.20200
F1000       F  0.18287997  0.07436483  0.79021117    -0.22900
C1001       C  0.59800290  0.21255801  0.66178807    -0.05800
C1002       C  0.62452869  0.18764244  0.67661031     0.00200
C1003       C  0.61725789  0.14815698  0.67447613    -0.08400
C1004       C  0.58230196  0.13590325  0.66082812    -0.05800
C1005       C  0.55512441  0.16108716  0.64811424     0.00200
C1006       C  0.56422169  0.20005404  0.64614433    -0.08300
C1007       C  0.54047331  0.22975502  0.62694071     0.62100
H1008       H  0.60377396  0.24243156  0.66210700     0.12800
H1009       H  0.57527867  0.10634150  0.66123620     0.12800
C1010       C  0.64560148  0.11844821  0.68638633     0.62300
F1011       F  0.56383296  0.25217171  0.60461887    -0.22900
F1012       F  0.52274281  0.25205373  0.65358698    -0.20200
F1013       F  0.51347818  0.21488728  0.60414706    -0.19900
F1014       F  0.64828629  0.11825447  0.72479551    -0.19900
F1015       F  0.68076131  0.12556800  0.66989688    -0.20200
F1016       F  0.63487212  0.08277071  0.67574163    -0.22900
C1017       C  0.41264217  0.17547176  0.69206293    -0.05800
C1018       C  0.41200778  0.16590770  0.65403734     0.00200
C1019       C  0.37824867  0.17405404  0.63443851    -0.08400
C1020       C  0.35191930  0.19926511  0.65043663    -0.05800
C1021       C  0.35462583  0.21176467  0.68732910     0.00200
C1022       C  0.38460465  0.19786997  0.70929730    -0.08300
C1023       C  0.38681783  0.20510558  0.75101625     0.62100
H1024       H  0.43576785  0.16520568  0.70849375     0.12800
H1025       H  0.32742464  0.20731895  0.63456898     0.12800
C1026       C  0.36559941  0.15412649  0.59949550     0.62300
F1027       F  0.41611825  0.18538548  0.76705410    -0.22900
F1028       F  0.35344243  0.19392908  0.76885107    -0.20200
F1029       F  0.39301433  0.24282216  0.75728666    -0.19900
F1030       F  0.38582164  0.12175216  0.59230041    -0.19900
F1031       F  0.36867482  0.17816909  0.56916256    -0.20200
F1032       F  0.32798941  0.14353671  0.60395140    -0.22900
C1033       C  0.40287573  0.81606334  0.64858248    -0.05800
C1034       C  0.42497093  0.84292896  0.66726398     0.00200
C1035       C  0.41662719  0.84860644  0.70626581    -0.08400
C1036       C  0.38404142  0.83175536  0.72241755    -0.05800
C1037       C  0.36157590  0.80644948  0.70313711     0.00200
C1038       C  0.37127580  0.79801326  0.66565751    -0.08300
C1039       C  0.34763504  0.77103650  0.64333802     0.62100
H1040       H  0.41075864  0.80797745  0.62058771     0.12800
H1041       H  0.37617061  0.83796538  0.75117590     0.12800
C1042       C  0.43947113  0.87282083  0.73257932     0.62300
F1043       F  0.35925169  0.76996357  0.60616849    -0.22900
F1044       F  0.31001138  0.78204622  0.64483673    -0.20200
F1045       F  0.35076982  0.73520968  0.65793709    -0.19900
F1046       F  0.42315497  0.90805189  0.73514854    -0.19900
F1047       F  0.47708597  0.87639845  0.72193065    -0.20200
F1048       F  0.43906003  0.85697490  0.76795697    -0.22900
C1049       C  0.45891201  0.98212920  0.62130539    -0.05800
C1050       C  0.49161923  0.96522080  0.63513450     0.00200
C1051       C  0.52129708  0.98871358  0.64724002    -0.08400
C1052       C  0.51677403  0.02826360  0.64503810    -0.05800
C1053       C  0.48392222  0.04489604  0.63083603     0.00200
C1054       C  0.45526124  0.02110573  0.61695193    -0.08300
C1055       C  0.42171987  0.03583377  0.59550407     0.62100
H1056       H  0.43581875  0.96418165  0.61329101     0.12800
H1057       H  0.53860903  0.04659653  0.65514230     0.12800
C1058       C  0.55632194  0.97238854  0.66467154     0.62300
F1059       F  0.40484258  0.00777136  0.57518391    -0.22900
F1060       F  0.43365461  0.06310756  0.57042379    -0.20200
F1061       F  0.39450448  0.05030455  0.61974947    -0.19900
F1062       F  0.57594905  0.95034781  0.63917557    -0.19900
F1063       F  0.54563703  0.95094715  0.69536738    -0.20200
F1064       F  0.58068667  0.00009118  0.67639693    -0.22900
C1065       C  0.40708036  0.19857875  0.34418966    -0.05800
C1066       C  0.38959189  0.18227404  0.31364067     0.00200
C1067       C  0.40311246  0.14666558  0.30048713    -0.08400
C1068       C  0.43245322  0.12860854  0.31954072    -0.05800
C1069       C  0.45002813  0.14522759  0.34968094     0.00200
C1070       C  0.43739417  0.18119550  0.36214349    -0.08300
C1071       C  0.45421333  0.20316885  0.39392339     0.62100
H1072       H  0.39710800  0.22559523  0.35423088     0.12800
H1073       H  0.44340956  0.10186565  0.30982994     0.12800
C1074       C  0.38862187  0.12811161  0.26543085     0.62300
F1075       F  0.46855651  0.23677300  0.38026369    -0.22900
F1076       F  0.48285081  0.18459598  0.41159204    -0.20200
F1077       F  0.42600595  0.21081656  0.42036183    -0.19900
F1078       F  0.38949915  0.15349420  0.23606258    -0.19900
F1079       F  0.35206927  0.11528714  0.27167163    -0.20200
F1080       F  0.41058441  0.09758698  0.25471334    -0.22900
C1081       C  0.61735101  0.16205587  0.37389181    -0.05800
C1082       C  0.59097962  0.14627188  0.34933316     0.00200
C1083       C  0.59787619  0.15191682  0.31014747    -0.08400
C1084       C  0.62677311  0.17666150  0.29839545    -0.05800
C1085       C  0.65075265  0.19460760  0.32321820     0.00200
C1086       C  0.64621952  0.18694842  0.36183395    -0.08300
C1087       C  0.67052753  0.20586288  0.39062532     0.62100
H1088       H  0.61630999  0.15456631  0.40296108     0.12800
H1089       H  0.63129397  0.18126017  0.26869302     0.12800
C1090       C  0.57705043  0.13338809  0.27831341     0.62300
F1091       F  0.65661785  0.19984611  0.42664871    -0.22900
F1092       F  0.67109788  0.24421739  0.38437908    -0.20200
F1093       F  0.70706881  0.19189580  0.38843811    -0.19900
F1094       F  0.55949434  0.16084841  0.25747292    -0.19900
F1095       F  0.55009080  0.10740045  0.28900558    -0.20200
F1096       F  0.60326618  0.11503371  0.25550588    -0.22900
C1097       C  0.46275212  0.12320125  0.51741028    -0.05800
C1098       C  0.49409259  0.12927338  0.54001365     0.00200
C1099       C  0.53086452  0.12727863  0.52344626    -0.08400
C1100       C  0.53463055  0.11665178  0.48614531    -0.05800
C1101       C  0.50359514  0.11405508  0.46233170     0.00200
C1102       C  0.46635742  0.11572971  0.47892694    -0.08300
C1103       C  0.43014362  0.10750613  0.45844615     0.62100
H1104       H  0.43487196  0.12328723  0.53058698     0.12800
H1105       H  0.56309776  0.11222957  0.47498813     0.12800
C1106       C  0.56690769  0.13921298  0.54214806     0.62300
F1107       F  0.39792683  0.11523388  0.47996719    -0.22900
F1108       F  0.42902076  0.06981155  0.44962932    -0.20200
F1109       F  0.42790621  0.12922272  0.42678491    -0.19900
F1110       F  0.58586014  0.10801448  0.55521967    -0.19900
F1111       F  0.55948820  0.16374649  0.57077306    -0.20200
F1112       F  0.59061189  0.15796166  0.51692226    -0.22900
C1113       C  0.57991039  0.78813000  0.34134642    -0.05800
C1114       C  0.58180178  0.82566210  0.35392384     0.00200
C1115       C  0.61847262  0.84293902  0.35395389    -0.08400
C1116       C  0.64888024  0.82488145  0.33525072    -0.05800
C1117       C  0.64562462  0.78900735  0.31970449     0.00200
C1118       C  0.61079187  0.76976190  0.32368479    -0.08300
C1119       C  0.60553046  0.73065434  0.30792662     0.62100
H1120       H  0.55415745  0.77240808  0.34578767     0.12800
H1121       H  0.67603345  0.83904927  0.33302207     0.12800
C1122       C  0.62823331  0.88019640  0.37220779     0.62300
F1123       F  0.56839652  0.71851498  0.31170831    -0.22900
F1124       F  0.62812652  0.70536580  0.32655359    -0.20200
F1125       F  0.61526982  0.73060824  0.27028097    -0.19900
F1126       F  0.60207393  0.89171809  0.39893966    -0.19900
F1127       F  0.63195815  0.90771454  0.34499744    -0.20200
F1128       F  0.66246664  0.87695526  0.38996496    -0.22900
C1129       C  0.43371092  0.82545961  0.31890854    -0.05800
C1130       C  0.43657507  0.83254532  0.35731231     0.00200
C1131       C  0.40504993  0.82331492  0.38134143    -0.08400
C1132       C  0.37437883  0.80321591  0.36654796    -0.05800
C1133       C  0.37271099  0.79498705  0.32847101     0.00200
C1134       C  0.40212048  0.80767888  0.30393688    -0.08300
C1135       C  0.40018310  0.80263609  0.26195181     0.62100
H1136       H  0.45679130  0.83426250  0.30038975     0.12800
H1137       H  0.35022803  0.79558507  0.38424022     0.12800
C1138       C  0.40176558  0.83636324  0.42145514     0.62300
F1139       F  0.43339625  0.81358713  0.24360812    -0.22900
F1140       F  0.37113260  0.82430078  0.24824589    -0.20200
F1141       F  0.39379413  0.76532782  0.25377386    -0.19900
F1142       F  0.39700562  0.87485665  0.42204516    -0.19900
F1143       F  0.43360108  0.82664625  0.44052033    -0.20200
F1144       F  0.37092301  0.82052584  0.44027320    -0.22900
C1145       C  0.50099505  0.90153057  0.48056192    -0.05800
C1146       C  0.50351245  0.86529633  0.46586433     0.00200
C1147       C  0.50119471  0.83388150  0.49035627    -0.08400
C1148       C  0.49720161  0.84032303  0.52885605    -0.05800
C1149       C  0.49508608  0.87659368  0.54389829     0.00200
C1150       C  0.49655673  0.90789508  0.51915220    -0.08300
C1151       C  0.49044938  0.94762240  0.53256317     0.62100
H1152       H  0.50243722  0.92501142  0.46130435     0.12800
H1153       H  0.49492181  0.81642219  0.54756240     0.12800
C1154       C  0.50168105  0.79306349  0.47799458     0.62300
F1155       F  0.49176268  0.97350188  0.50358469    -0.22900
F1156       F  0.51803068  0.95739899  0.55723468    -0.20200
F1157       F  0.45505885  0.94982319  0.54954003    -0.19900
F1158       F  0.53526647  0.77658404  0.48851088    -0.19900
F1159       F  0.49810851  0.78849893  0.44003955    -0.20200
F1160       F  0.47181974  0.77412855  0.49535236    -0.22900
C1161       C  0.53463278  0.96367798  0.39561179    -0.05800
C1162       C  0.50877942  0.94626650  0.37245105     0.00200
C1163       C  0.48499592  0.96867642  0.35025779    -0.08400
C1164       C  0.48901758  0.00828073  0.35109321    -0.05800
C1165       C  0.51607618  0.02571050  0.37340531     0.00200
C1166       C  0.53847686  0.00291005  0.39703546    -0.08300
C1167       C  0.56527055  0.01945755  0.42503782     0.62100
H1168       H  0.55210448  0.94589700  0.41270943     0.12800
H1169       H  0.47157888  0.02590640  0.33378246     0.12800
C1170       C  0.45625539  0.95054036  0.32542353     0.62300
F1171       F  0.58198317  0.99204034  0.44668022    -0.22900
F1172       F  0.54524768  0.04287932  0.44881001    -0.20200
F1173       F  0.59399432  0.03927791  0.40706563    -0.19900
F1174       F  0.43082030  0.92974017  0.34698935    -0.19900
F1175       F  0.47459550  0.92704564  0.30019943    -0.20200
F1176       F  0.43606044  0.97697378  0.30561336    -0.22900
C1177       C  0.66011249  0.57071853  0.17914045    -0.05800
C1178       C  0.66984332  0.56740068  0.14097183     0.00200
C1179       C  0.69080914  0.59622485  0.12313476    -0.08400
C1180       C  0.70187591  0.62725255  0.14439918    -0.05800
C1181       C  0.69405259  0.63001972  0.18332317     0.00200
C1182       C  0.67169371  0.60140868  0.20077961    -0.08300
C1183       C  0.66044548  0.60231813  0.24193292     0.62100
H1184       H  0.64411530  0.54804257  0.19216762     0.12800
H1185       H  0.71843108  0.64897640  0.13055865     0.12800
C1186       C  0.70397886  0.59292629  0.08259873     0.62300
F1187       F  0.63701274  0.57264067  0.25211325    -0.22900
F1188       F  0.64101680  0.63518253  0.24989050    -0.20200
F1189       F  0.69246761  0.60002598  0.26325109    -0.19900
F1190       F  0.67326348  0.58861253  0.05996019    -0.19900
F1191       F  0.72766799  0.56219016  0.07865297    -0.20200
F1192       F  0.72369730  0.62440624  0.07034061    -0.22900
C1193       C  0.65540813  0.39569349  0.14631730    -0.05800
C1194       C  0.67923913  0.42685776  0.13952323     0.00200
C1195       C  0.71679023  0.42485414  0.15320960    -0.08400
C1196       C  0.72556193  0.39665017  0.17904398    -0.05800
C1197       C  0.70031611  0.36748409  0.18879953     0.00200
C1198       C  0.66456272  0.36653824  0.17125054    -0.08300
C1199       C  0.63536461  0.33582927  0.17886788     0.62100
H1200       H  0.62883532  0.39445952  0.13210718     0.12800
H1201       H  0.75374085  0.39665840  0.19036291     0.12800
C1202       C  0.74977123  0.44973443  0.14063215     0.62300
F1203       F  0.60136705  0.34319794  0.16180710    -0.22900
F1204       F  0.62772092  0.33299825  0.21682323    -0.20200
F1205       F  0.64876173  0.30188974  0.16534911    -0.19900
F1206       F  0.75936349  0.47330037  0.16942756    -0.19900
F1207       F  0.74221897  0.47081467  0.10938033    -0.20200
F1208       F  0.78092418  0.42755401  0.13168080    -0.22900
C1209       C  0.62861309  0.40722709  0.79919771    -0.05800
C1210       C  0.65178822  0.42965445  0.82199305     0.00200
C1211       C  0.69150826  0.42081704  0.82174276    -0.08400
C1212       C  0.70426777  0.38770512  0.80376885    -0.05800
C1213       C  0.68022603  0.36427591  0.78377458     0.00200
C1214       C  0.64175911  0.37441181  0.78105499    -0.08300
C1215       C  0.61418354  0.34967322  0.76064898     0.62100
H1216       H  0.59984920  0.41555251  0.79449392     0.12800
H1217       H  0.73374610  0.37948976  0.80560256     0.12800
C1218       C  0.72161177  0.44420902  0.84073725     0.62300
F1219       F  0.57747588  0.36339667  0.76294755    -0.22900
F1220       F  0.61415881  0.31402464  0.77616383    -0.20200
F1221       F  0.62477780  0.34755163  0.72333371    -0.19900
F1222       F  0.72371503  0.43386677  0.87780126    -0.19900
F1223       F  0.71454981  0.48218891  0.83819996    -0.20200
F1224       F  0.75702765  0.43839417  0.82416993    -0.22900
C1225       C  0.61884012  0.52220457  0.00718765    -0.05800
C1226       C  0.65071337  0.50405815  0.02160039     0.00200
C1227       C  0.67970540  0.49303695  0.99548640    -0.08400
C1228       C  0.67242522  0.49430249  0.95693863    -0.05800
C1229       C  0.63907834  0.50981353  0.94221020     0.00200
C1230       C  0.61405744  0.52848421  0.96847022    -0.08300
C1231       C  0.58418531  0.55719598  0.95781025     0.62100
H1232       H  0.59703199  0.53162300  0.02667368     0.12800
H1233       H  0.69410046  0.48368610  0.93782876     0.12800
C1234       C  0.71914515  0.48078915  0.00627437     0.62300
F1235       F  0.56733895  0.57404352  0.98879930    -0.22900
F1236       F  0.55552689  0.54081234  0.93837824    -0.20200
F1237       F  0.60116765  0.58561235  0.93700004    -0.19900
F1238       F  0.72131807  0.44203817  0.00636553    -0.19900
F1239       F  0.72865195  0.49441739  0.04068832    -0.20200
F1240       F  0.74585520  0.49456834  0.98074255    -0.22900
C1241       C  0.37945656  0.42063298  0.20060918    -0.05800
C1242       C  0.37071416  0.42938653  0.16351664     0.00200
C1243       C  0.34957585  0.40343068  0.14299818    -0.08400
C1244       C  0.33734985  0.36986012  0.16069047    -0.05800
C1245       C  0.34476574  0.36147391  0.19851465     0.00200
C1246       C  0.36725374  0.38725630  0.21854576    -0.08300
C1247       C  0.37754961  0.38088741  0.25898919     0.62100
H1248       H  0.39504810  0.44130711  0.21602726     0.12800
H1249       H  0.32081578  0.35024189  0.14496269     0.12800
C1250       C  0.33846070  0.41191321  0.10320049     0.62300
F1251       F  0.40050411  0.40910377  0.27213281    -0.22900
F1252       F  0.39714717  0.34744117  0.26238478    -0.20200
F1253       F  0.34495860  0.38002371  0.28127543    -0.19900
F1254       F  0.37059375  0.41398258  0.08043580    -0.19900
F1255       F  0.31921152  0.44570576  0.10182112    -0.20200
F1256       F  0.31512491  0.38446084  0.08920022    -0.22900
C1257       C  0.30001930  0.60610918  0.19694717    -0.05800
C1258       C  0.32038065  0.62687746  0.22269651     0.00200
C1259       C  0.35812922  0.61657568  0.22967025    -0.08400
C1260       C  0.37478874  0.58697536  0.20893205    -0.05800
C1261       C  0.35540673  0.56734864  0.18084004     0.00200
C1262       C  0.31587329  0.57579876  0.17689007    -0.08300
C1263       C  0.28764926  0.55521301  0.15268571     0.62100
H1264       H  0.27068478  0.61372825  0.19247842     0.12800
H1265       H  0.40301375  0.57879214  0.21592904     0.12800
C1266       C  0.38109554  0.63742404  0.25817207     0.62300
F1267       F  0.27559908  0.57936307  0.12505801    -0.22900
F1268       F  0.25649714  0.54487115  0.17463627    -0.20200
F1269       F  0.30096061  0.52302356  0.13590463    -0.19900
F1270       F  0.36523882  0.63174539  0.29342944    -0.19900
F1271       F  0.38130861  0.67542587  0.25001812    -0.20200
F1272       F  0.41835625  0.62526436  0.25851676    -0.22900
C1273       C  0.49987816  0.53626273  0.12976802    -0.05800
C1274       C  0.47939518  0.50267561  0.13505076     0.00200
C1275       C  0.49950907  0.46838006  0.13198755    -0.08400
C1276       C  0.53778888  0.46907172  0.12026569    -0.05800
C1277       C  0.55927805  0.50249785  0.11736654     0.00200
C1278       C  0.53932929  0.53716023  0.12196242    -0.08300
C1279       C  0.55789446  0.57540964  0.11829770     0.62100
H1280       H  0.48429654  0.56241077  0.13066789     0.12800
H1281       H  0.55153946  0.44237260  0.11493484     0.12800
C1282       C  0.48282432  0.43067751  0.14322763     0.62300
F1283       F  0.53422147  0.60394264  0.13090376    -0.22900
F1284       F  0.56675085  0.58284645  0.08123626    -0.20200
F1285       F  0.58982355  0.57670690  0.13941480    -0.19900
F1286       F  0.46926020  0.41264824  0.11229185    -0.19900
F1287       F  0.45423943  0.43480292  0.16976455    -0.20200
F1288       F  0.51018485  0.40808117  0.15894100    -0.22900
C1289       C  0.30061367  0.58794120  0.86747638    -0.05800
C1290       C  0.33991169  0.58498274  0.87326345     0.00200
C1291       C  0.36258438  0.61763468  0.86666584    -0.08400
C1292       C  0.34656618  0.64826394  0.84717131    -0.05800
C1293       C  0.30825725  0.64874024  0.83782192     0.00200
C1294       C  0.28440073  0.61909733  0.84992762    -0.08300
C1295       C  0.24195374  0.62004498  0.84353819     0.62100
H1296       H  0.28249194  0.56477261  0.87595397     0.12800
H1297       H  0.36340230  0.67284607  0.84029661     0.12800
C1298       C  0.40140539  0.62270573  0.88317295     0.62300
F1299       F  0.22426142  0.58721192  0.85519461    -0.22900
F1300       F  0.23540197  0.62490259  0.80594613    -0.20200
F1301       F  0.22554716  0.64936515  0.86326322    -0.19900
F1302       F  0.42610871  0.59511868  0.87147441    -0.19900
F1303       F  0.39776300  0.62185477  0.92165542    -0.20200
F1304       F  0.41749794  0.65682277  0.87310369    -0.22900
C1305       C  0.30723612  0.42277226  0.86657105    -0.05800
C1306       C  0.33454352  0.44642167  0.84907818     0.00200
C1307       C  0.34113660  0.44235206  0.80934046    -0.08400
C1308       C  0.32380123  0.41235754  0.79098560    -0.05800
C1309       C  0.29805330  0.38867306  0.80921046     0.00200
C1310       C  0.28853900  0.39437667  0.84717411    -0.08300
C1311       C  0.25790358  0.37099914  0.86673288     0.62100
H1312       H  0.29895571  0.42730495  0.89528589     0.12800
H1313       H  0.33035858  0.40693571  0.76181239     0.12800
C1314       C  0.36688261  0.46739923  0.78481629     0.62300
F1315       F  0.25443125  0.37912585  0.90438203    -0.22900
F1316       F  0.26611054  0.33322325  0.86334147    -0.20200
F1317       F  0.22347153  0.37818250  0.85057640    -0.19900
F1318       F  0.35761344  0.46493917  0.74760702    -0.19900
F1319       F  0.40420359  0.45624605  0.78741020    -0.20200
F1320       F  0.36350646  0.50471581  0.79390203    -0.22900
C1321       C  0.47494228  0.48753120  0.90416089    -0.05800
C1322       C  0.45534650  0.51042112  0.87920489     0.00200
C1323       C  0.47538258  0.52625280  0.84803231    -0.08400
C1324       C  0.51493323  0.52246621  0.84592145    -0.05800
C1325       C  0.53438528  0.49997571  0.87111508     0.00200
C1326       C  0.51402852  0.48075547  0.90000165    -0.08300
C1327       C  0.53274036  0.45206508  0.92526868     0.62100
H1328       H  0.45851670  0.47213795  0.92534010     0.12800
H1329       H  0.53069649  0.53529546  0.82268719     0.12800
C1330       C  0.45694694  0.54411369  0.81446892     0.62300
F1331       F  0.50727038  0.43710185  0.95135195    -0.22900
F1332       F  0.56175657  0.46832198  0.94439605    -0.20200
F1333       F  0.54725575  0.42275342  0.90427480    -0.19900
F1334       F  0.41824174  0.54835050  0.81869442    -0.19900
F1335       F  0.46399698  0.52178392  0.78361470    -0.20200
F1336       F  0.47260246  0.57914826  0.80769685    -0.22900
C1337       C  0.40753245  0.50753890  0.98907694    -0.05800
C1338       C  0.37105491  0.50657782  0.97492579     0.00200
C1339       C  0.33962742  0.50931104  0.00021789    -0.08400
C1340       C  0.34613750  0.50945920  0.03899862    -0.05800
C1341       C  0.38293115  0.50823352  0.05332590     0.00200
C1342       C  0.41432956  0.50868819  0.02754329    -0.08300
C1343       C  0.45479439  0.51263053  0.03991011     0.62100
H1344       H  0.43148996  0.50789041  0.96907361     0.12800
H1345       H  0.32227809  0.51092385  0.05862481     0.12800
C1346       C  0.29970871  0.51450226  0.98627747     0.62300
F1347       F  0.48006354  0.51781220  0.01010506    -0.22900
F1348       F  0.46564896  0.48056313  0.05842277    -0.20200
F1349       F  0.45744463  0.54348458  0.06279937    -0.19900
F1350       F  0.28758532  0.48202437  0.96951325    -0.19900
F1351       F  0.29911902  0.54369264  0.96066466    -0.20200
F1352       F  0.27426434  0.52306284  0.01504373    -0.22900
C1353       C  0.17435485  0.63942546  0.62268363    -0.05800
C1354       C  0.16117572  0.66430218  0.59461221     0.00200
C1355       C  0.16612864  0.70387425  0.60107443    -0.08400
C1356       C  0.18567106  0.71552516  0.63273822    -0.05800
C1357       C  0.19958384  0.69047116  0.65908953     0.00200
C1358       C  0.19385399  0.65174547  0.65430377    -0.08300
C1359       C  0.20732954  0.62373089  0.68317955     0.62100
H1360       H  0.16819124  0.61000976  0.62132412     0.12800
H1361       H  0.19013630  0.74512960  0.63771947     0.12800
C1362       C  0.15158542  0.73515204  0.57595102     0.62300
F1363       F  0.19732161  0.58727724  0.67464818    -0.22900
F1364       F  0.19158321  0.63223989  0.71786166    -0.20200
F1365       F  0.24639324  0.62529758  0.68487326    -0.19900
F1366       F  0.11435730  0.72917242  0.56722683    -0.19900
F1367       F  0.17399555  0.73791720  0.54404766    -0.20200
F1368       F  0.15273114  0.76992578  0.59298603    -0.22900
C1369       C  0.17002946  0.63579955  0.43011019    -0.05800
C1370       C  0.15348937  0.66323894  0.45358142     0.00200
C1371       C  0.15562938  0.70160033  0.44218604    -0.08400
C1372       C  0.17512537  0.71086613  0.40895998    -0.05800
C1373       C  0.19268117  0.68380644  0.38641538     0.00200
C1374       C  0.18931981  0.64549248  0.39629019    -0.08300
C1375       C  0.20545588  0.61531647  0.37087763     0.62100
H1376       H  0.16912021  0.60684942  0.43911619     0.12800
H1377       H  0.17683398  0.74012775  0.40045638     0.12800
C1378       C  0.13798519  0.73450893  0.46285640     0.62300
F1379       F  0.19664027  0.57967877  0.38397275    -0.22900
F1380       F  0.24445746  0.61862718  0.36833953    -0.20200
F1381       F  0.19074685  0.61927720  0.33567387    -0.19900
F1382       F  0.16598995  0.75988576  0.47154590    -0.19900
F1383       F  0.11915733  0.72425290  0.49517878    -0.20200
F1384       F  0.11230835  0.75224690  0.44014858    -0.22900
C1385       C  0.80572031  0.65312953  0.42461451    -0.05800
C1386       C  0.84560365  0.64855372  0.42640645     0.00200
C1387       C  0.86687406  0.65262588  0.39211321    -0.08400
C1388       C  0.84896787  0.66854713  0.36103956    -0.05800
C1389       C  0.80980060  0.67573360  0.36057599     0.00200
C1390       C  0.78745045  0.66660350  0.39267016    -0.08300
C1391       C  0.74462677  0.67155747  0.39380556     0.62100
H1392       H  0.78825038  0.64514978  0.44848511     0.12800
H1393       H  0.86576628  0.67426599  0.33591087     0.12800
C1394       C  0.90726946  0.63867428  0.38545863     0.62300
F1395       F  0.72882020  0.66335829  0.42865469    -0.22900
F1396       F  0.72849387  0.64770823  0.36841355    -0.20200
F1397       F  0.73545389  0.70831387  0.38521646    -0.19900
F1398       F  0.91514562  0.60751578  0.40698736    -0.19900
F1399       F  0.93261782  0.66713356  0.39252000    -0.20200
F1400       F  0.91283931  0.62789136  0.34864381    -0.22900
C1401       C  0.97568977  0.66323541  0.50587271    -0.05800
C1402       C  0.95632535  0.63093544  0.51951393     0.00200
C1403       C  0.97851101  0.60502295  0.54101037    -0.08400
C1404       C  0.01846842  0.60980590  0.54214717    -0.05800
C1405       C  0.03731548  0.64039488  0.52567279     0.00200
C1406       C  0.01531278  0.66810046  0.50801429    -0.08300
C1407       C  0.03364918  0.70277556  0.49126485     0.62100
H1408       H  0.95949763  0.68545039  0.49333062     0.12800
H1409       H  0.03575587  0.58976129  0.55672885     0.12800
C1410       C  0.96172229  0.57402479  0.56545510     0.62300
F1411       F  0.00768664  0.72644273  0.47485204    -0.22900
F1412       F  0.06001902  0.69222396  0.46411921    -0.20200
F1413       F  0.05098627  0.72249631  0.51911157    -0.19900
F1414       F  0.94100890  0.54971288  0.54480952    -0.19900
F1415       F  0.93931065  0.58971018  0.59345401    -0.20200
F1416       F  0.98926568  0.55267849  0.58249342    -0.22900
C1417       C  0.17484448  0.36162548  0.38969344    -0.05800
C1418       C  0.19107675  0.36318314  0.42509129     0.00200
C1419       C  0.23067150  0.35469856  0.42696567    -0.08400
C1420       C  0.24837301  0.33480610  0.39715909    -0.05800
C1421       C  0.22970621  0.32851525  0.36368942     0.00200
C1422       C  0.19389823  0.34580005  0.35872617    -0.08300
C1423       C  0.17485562  0.34732151  0.32118656     0.62100
H1424       H  0.14651881  0.37257553  0.38620597     0.12800
H1425       H  0.27713346  0.32462998  0.39988821     0.12800
C1426       C  0.25628165  0.36880997  0.45728334     0.62300
F1427       F  0.15127269  0.37830442  0.31893946    -0.22900
F1428       F  0.15337699  0.31533437  0.31664281    -0.20200
F1429       F  0.20143430  0.35024392  0.29222132    -0.19900
F1430       F  0.26391253  0.34009594  0.48207255    -0.19900
F1431       F  0.24077254  0.39902761  0.47627668    -0.20200
F1432       F  0.29030688  0.38100815  0.44144437    -0.22900
C1433       C  0.14839136  0.33018677  0.57772357    -0.05800
C1434       C  0.16146355  0.36532476  0.56498282     0.00200
C1435       C  0.18674664  0.38576880  0.58760438    -0.08400
C1436       C  0.19775618  0.37018706  0.62199922    -0.05800
C1437       C  0.18696554  0.33388382  0.63323445     0.00200
C1438       C  0.16101035  0.31385380  0.61120933    -0.08300
C1439       C  0.14679671  0.27516829  0.62283202     0.62100
H1440       H  0.12968193  0.31458798  0.56004788     0.12800
H1441       H  0.21696893  0.38571840  0.63926200     0.12800
C1442       C  0.20403222  0.42344607  0.57692342     0.62300
F1443       F  0.11661650  0.26387519  0.60175471    -0.22900
F1444       F  0.13471573  0.27542959  0.65987107    -0.20200
F1445       F  0.17560040  0.24912109  0.61813690    -0.19900
F1446       F  0.19778812  0.43387361  0.54056003    -0.19900
F1447       F  0.24285987  0.42203638  0.58122648    -0.20200
F1448       F  0.18904410  0.45075528  0.60028429    -0.22900
C1449       C  0.12758558  0.48392880  0.53260330    -0.05800
C1450       C  0.13086422  0.47277371  0.49517396     0.00200
C1451       C  0.12809940  0.50098804  0.46698011    -0.08400
C1452       C  0.12702730  0.53904411  0.47759752    -0.05800
C1453       C  0.12478636  0.55015089  0.51509181     0.00200
C1454       C  0.12233872  0.52157908  0.54309400    -0.08300
C1455       C  0.11346114  0.52881310  0.58420550     0.62100
H1456       H  0.12909609  0.46288784  0.55437588     0.12800
H1457       H  0.12740152  0.56030788  0.45601194     0.12800
C1458       C  0.12505980  0.49307879  0.42557952     0.62300
F1459       F  0.09202252  0.49970613  0.59937696    -0.22900
F1460       F  0.09263754  0.56128081  0.58958342    -0.20200
F1461       F  0.14682823  0.53091228  0.60344526    -0.19900
F1462       F  0.11264368  0.45718041  0.41866120    -0.19900
F1463       F  0.15994880  0.49870360  0.40799985    -0.20200
F1464       F  0.09907932  0.51732743  0.41000556    -0.22900
C1465       C  0.83135168  0.28030237  0.60662564    -0.05800
C1466       C  0.80332067  0.30199623  0.62485108     0.00200
C1467       C  0.79571609  0.33843807  0.61143622    -0.08400
C1468       C  0.81705965  0.35195238  0.58057608    -0.05800
C1469       C  0.84752488  0.33160091  0.56384774     0.00200
C1470       C  0.85210074  0.29333060  0.57513088    -0.08300
C1471       C  0.87713865  0.26433775  0.55529256     0.62100
H1472       H  0.83639615  0.25199975  0.61667833     0.12800
H1473       H  0.80890348  0.37861937  0.56889529     0.12800
C1474       C  0.76628901  0.36367860  0.63021769     0.62300
F1475       F  0.85944717  0.22964747  0.55608022    -0.22900
F1476       F  0.91104055  0.26093721  0.57349790    -0.20200
F1477       F  0.88424693  0.27279253  0.51819275    -0.19900
F1478       F  0.77299218  0.36598716  0.66798349    -0.19900
F1479       F  0.73045931  0.34931727  0.62512129    -0.20200
F1480       F  0.76725250  0.39979769  0.61573166    -0.22900
C1481       C  0.87631238  0.31893175  0.40857868    -0.05800
C1482       C  0.86140539  0.35065826  0.42664032     0.00200
C1483       C  0.82943795  0.36907185  0.41184995    -0.08400
C1484       C  0.81209586  0.35382744  0.38032644    -0.05800
C1485       C  0.82543509  0.32054913  0.36390743     0.00200
C1486       C  0.85889002  0.30349898  0.37726567    -0.08300
C1487       C  0.87597999  0.26893500  0.35868394     0.62100
H1488       H  0.90048685  0.30502749  0.42057270     0.12800
H1489       H  0.78711494  0.36696255  0.36912947     0.12800
C1490       C  0.81362149  0.40443630  0.42973397     0.62300
F1491       F  0.91121295  0.26026840  0.37251426    -0.22900
F1492       F  0.88042944  0.27511288  0.32068458    -0.20200
F1493       F  0.85249942  0.23838001  0.36483672    -0.19900
F1494       F  0.84160548  0.43151160  0.42985712    -0.19900
F1495       F  0.80143529  0.39705407  0.46599497    -0.20200
F1496       F  0.78323137  0.41869259  0.41052663    -0.22900
C1497       C  0.84967918  0.47018855  0.50905559    -0.05800
C1498       C  0.88521946  0.45403456  0.49968257     0.00200
C1499       C  0.91567024  0.47832572  0.48893773    -0.08400
C1500       C  0.90855093  0.51719999  0.48655503    -0.05800
C1501       C  0.87408645  0.53296597  0.49890387     0.00200
C1502       C  0.84387670  0.50919485  0.50971304    -0.08300
C1503       C  0.80549716  0.52509325  0.52111831     0.62100
H1504       H  0.82618490  0.45183081  0.51630494     0.12800
H1505       H  0.93066096  0.53605927  0.47649022     0.12800
C1506       C  0.95616571  0.46481916  0.48287472     0.62300
F1507       F  0.79048932  0.54414257  0.49124094    -0.22900
F1508       F  0.80941738  0.54943775  0.55066958    -0.20200
F1509       F  0.78015739  0.49729417  0.53211304    -0.19900
F1510       F  0.96047763  0.44770011  0.44861048    -0.19900
F1511       F  0.96559994  0.44024215  0.51095671    -0.20200
F1512       F  0.98174008  0.49422782  0.48367835    -0.22900
C1513       C  0.99238659  0.36042757  0.46159779    -0.05800
C1514       C  0.97596442  0.36065203  0.49765226     0.00200
C1515       C  0.00051217  0.36450013  0.52846961    -0.08400
C1516       C  0.04003996  0.36554457  0.52165602    -0.05800
C1517       C  0.05661370  0.36730991  0.48561713     0.00200
C1518       C  0.03183836  0.36486965  0.45462976    -0.08300
C1519       C  0.04535517  0.36685112  0.41401703     0.62100
H1520       H  0.97365707  0.35708386  0.43841464     0.12800
H1521       H  0.05847214  0.36561900  0.54528290     0.12800
C1522       C  0.98651561  0.36984509  0.56870620     0.62300
F1523       F  0.01585605  0.37491463  0.39050527    -0.22900
F1524       F  0.06035985  0.33258143  0.40335096    -0.20200
F1525       F  0.07197968  0.39480499  0.40867490    -0.19900
F1526       F  0.97890871  0.33537246  0.58504205    -0.19900
F1527       F  0.95456687  0.39233254  0.57058756    -0.20200
F1528       F  0.01364330  0.38731682  0.58974327    -0.22900
C1529       C  0.84871184  0.64526262  0.59898937    -0.05800
C1530       C  0.82709425  0.63986103  0.56723040     0.00200
C1531       C  0.78732862  0.64769804  0.57011360    -0.08400
C1532       C  0.77250115  0.66594520  0.60216937    -0.05800
C1533       C  0.79482611  0.67402702  0.63287788     0.00200
C1534       C  0.83322435  0.66105689  0.63211863    -0.08300
C1535       C  0.85858813  0.66401756  0.66562417     0.62100
H1536       H  0.87867346  0.63878882  0.59719585     0.12800
H1537       H  0.74287455  0.67409589  0.60303898     0.12800
C1538       C  0.75860716  0.63702305  0.54118030     0.62300
F1539       F  0.89044553  0.64150047  0.66165429    -0.22900
F1540       F  0.83919711  0.65244578  0.69770980    -0.20200
F1541       F  0.87059145  0.70067447  0.66957098    -0.19900
F1542       F  0.72830886  0.61888181  0.55865547    -0.19900
F1543       F  0.77299287  0.61297877  0.51438601    -0.20200
F1544       F  0.74535411  0.66915648  0.52402160    -0.22900
C1545       C  0.65085530  0.61378589  0.77024103    -0.05800
C1546       C  0.66641295  0.64003965  0.79467873     0.00200
C1547       C  0.66264512  0.63287076  0.83393399    -0.08400
C1548       C  0.64840894  0.59791749  0.84640684    -0.05800
C1549       C  0.63542604  0.57077980  0.82179370     0.00200
C1550       C  0.63381865  0.58015367  0.78321855    -0.08300
C1551       C  0.61349328  0.55667600  0.75477510     0.62100
H1552       H  0.65173790  0.61958451  0.74052318     0.12800
H1553       H  0.64888804  0.59087912  0.87579899     0.12800
C1554       C  0.67318698  0.66147533  0.86325938     0.62300
F1555       F  0.59021848  0.57965292  0.73409834    -0.22900
F1556       F  0.59082464  0.52920242  0.77101916    -0.20200
F1557       F  0.63983936  0.54003620  0.73088759    -0.19900
F1558       F  0.65728518  0.69595665  0.85495220    -0.19900
F1559       F  0.71215035  0.66470544  0.86469174    -0.20200
F1560       F  0.65989697  0.65116024  0.89853151    -0.22900
C1561       C  0.61720596  0.80480938  0.64587656    -0.05800
C1562       C  0.63113202  0.81762156  0.67989162     0.00200
C1563       C  0.61218417  0.84817900  0.69817485    -0.08400
C1564       C  0.57948676  0.86341044  0.68229286    -0.05800
C1565       C  0.56549238  0.85034803  0.64870859     0.00200
C1566       C  0.58472612  0.82081354  0.62991355    -0.08300
C1567       C  0.57036735  0.80592561  0.59352235     0.62100
H1568       H  0.63181010  0.78184391  0.63199447     0.12800
H1569       H  0.56343531  0.88486356  0.69686901     0.12800
C1570       C  0.62502852  0.86419020  0.73503731     0.62300
F1571       F  0.59352421  0.77797293  0.57888192    -0.22900
F1572       F  0.56921567  0.83491334  0.56782473    -0.20200
F1573       F  0.53445140  0.79120419  0.59920057    -0.19900
F1574       F  0.65909882  0.88280891  0.72961515    -0.19900
F1575       F  0.62919686  0.83566162  0.76083902    -0.20200
F1576       F  0.59918279  0.88958707  0.75007066    -0.22900
C1577       C  0.71187687  0.84502923  0.88720978    -0.05800
C1578       C  0.68909189  0.82616180  0.86206800     0.00200
C1579       C  0.64963713  0.82245183  0.87049603    -0.08400
C1580       C  0.63447955  0.83851689  0.90350408    -0.05800
C1581       C  0.65750440  0.85593694  0.92944895     0.00200
C1582       C  0.69711088  0.85974612  0.92095333    -0.08300
C1583       C  0.72568563  0.87811703  0.94622622     0.62100
H1584       H  0.74203305  0.84725901  0.88094211     0.12800
H1585       H  0.60458539  0.83489288  0.91042286     0.12800
C1586       C  0.62222794  0.80051314  0.84710311     0.62300
F1587       F  0.74645381  0.90448206  0.92594704    -0.22900
F1588       F  0.75021810  0.85101462  0.95920587    -0.20200
F1589       F  0.70951131  0.89632131  0.97654085    -0.19900
F1590       F  0.63906828  0.78413371  0.81603681    -0.19900
F1591       F  0.59384803  0.82431978  0.83542132    -0.20200
F1592       F  0.60599215  0.77226615  0.86878262    -0.22900
C1593       C  0.84354245  0.89128818  0.70456282    -0.05800
C1594       C  0.82603038  0.86305207  0.68434345     0.00200
C1595       C  0.82877996  0.86373739  0.64474752    -0.08400
C1596       C  0.84610321  0.89483057  0.62670452    -0.05800
C1597       C  0.86103838  0.92455493  0.64704944     0.00200
C1598       C  0.86206110  0.92155473  0.68664875    -0.08300
C1599       C  0.88231367  0.94898437  0.71155647     0.62100
H1600       H  0.84269296  0.88972674  0.73479782     0.12800
H1601       H  0.84592691  0.89733582  0.59658495     0.12800
C1602       C  0.81161265  0.83281189  0.62168270     0.62300
F1603       F  0.85627659  0.96552633  0.73587120    -0.22900
F1604       F  0.90147527  0.97689409  0.69209777    -0.20200
F1605       F  0.90865637  0.92956832  0.73210982    -0.19900
F1606       F  0.77319892  0.83016708  0.62990184    -0.19900
F1607       F  0.82885327  0.79892538  0.62961731    -0.20200
F1608       F  0.81630920  0.83954918  0.58377107    -0.22900
C1609       C  0.88997784  0.69119599  0.79450957    -0.05800
C1610       C  0.85890185  0.70188902  0.81727759     0.00200
C1611       C  0.85886705  0.69171237  0.85564495    -0.08400
C1612       C  0.88971080  0.67092594  0.86918445    -0.05800
C1613       C  0.92114269  0.66013956  0.84641179     0.00200
C1614       C  0.91970896  0.66874556  0.80736953    -0.08300
C1615       C  0.94781086  0.65550635  0.77712142     0.62100
H1616       H  0.89015996  0.69873612  0.76517819     0.12800
H1617       H  0.88804900  0.66150990  0.89773428     0.12800
C1618       C  0.82681721  0.70254362  0.88272706     0.62300
F1619       F  0.92863462  0.64588831  0.74533756    -0.22900
F1620       F  0.96812018  0.62421591  0.78703853    -0.20200
F1621       F  0.97258149  0.68437381  0.76801700    -0.19900
F1622       F  0.79437791  0.68283807  0.87457298    -0.19900
F1623       F  0.81990349  0.74070805  0.88029023    -0.20200
F1624       F  0.83542351  0.69453406  0.91938251    -0.22900
loop_ 
_geom_bond_atom_site_label_1 
_geom_bond_atom_site_label_2 
_geom_bond_distance 
_geom_bond_site_symmetry_2 
_ccdc_geom_bond_type 
Zn1           O5   1.950       .  S
Zn1           O6   2.008       .  S
Zn1          O10   2.008       .  S
Zn1          O17   1.985       .  S
Zn2           O5   1.953       .  S
Zn2           O7   2.023       .  S
Zn2           O9   2.019       .  S
Zn2          O13   1.989       .  S
Zn3           O5   1.965       .  S
Zn3           O8   2.055       .  S
Zn3          O11   2.063       .  S
Zn3          O14   1.987       .  S
Zn4           O5   2.002       .  S
Zn4          O12   2.088       .  S
Zn4          O15   2.094       .  S
Zn4          O16   2.103       .  S
O6           C18   1.274       .  A
O7           C19   1.273       .  A
O8           C20   1.278       .  A
O9           C18   1.272       .  A
O10          C20   1.270       .  A
O11          C19   1.278       .  A
O12          C21   1.285       .  A
O13          C22   1.267       .  A
O14          C21   1.269       .  A
O15          C22   1.283       .  A
O16          C23   1.284       .  A
O17          C23   1.267       .  A
C18        C1610   1.498       .  S
C19        C1578   1.484       .  S
C20        C1594   1.482       .  S
C21        C1562   1.497       .  S
C22        C1546   1.507       .  S
C23        C1533   1.507       .  S
C24          C25   1.539       .  S
C24          C30   1.521       .  S
C24          C28   1.548       .  S
C24        C1469   1.544       .  S
C25          H32   1.075       .  S
C25          C26   1.372       .  D
C26          C27   1.561       .  S
C26        C1514   1.512       .  S
C27          C31   1.548       .  S
C27          C29   1.544       .  S
C27          H33   1.101       .  S
C28          H34   1.084       .  S
C28          C29   1.367       .  D
C29        C1498   1.504       .  S
C30          H35   1.087       .  S
C30          C31   1.356       .  D
C31        C1482   1.486       .  S
C36          C37   1.553       .  S
C36          C42   1.533       .  S
C36          C40   1.537       .  S
C36        C1418   1.547       .  S
C37          H44   1.078       .  S
C37          C38   1.371       .  D
C38          C39   1.555       .  S
C38        C1517   1.522       .  S
C39          C43   1.556       .  S
C39          C41   1.547       .  S
C39          H45   1.107       .  S
C40          H46   1.085       .  S
C40          C41   1.367       .  D
C41        C1450   1.506       .  S
C42          H47   1.081       .  S
C42          C43   1.361       .  D
C43        C1434   1.497       .  S
C48          C49   1.546       .  S
C48          C54   1.538       .  S
C48          C52   1.525       .  S
C48        C1386   1.554       .  S
C49          H56   1.076       .  S
C49          C50   1.390       .  D
C50          C51   1.569       .  S
C50        C1402   1.550       .  S
C51          C55   1.560       .  S
C51          C53   1.550       .  S
C51          H57   1.098       .  S
C52          H58   1.087       .  S
C52          C53   1.354       .  D
C53        C1501   1.485       .  S
C54          H59   1.085       .  S
C54          C55   1.361       .  D
C55        C1530   1.511       .  S
C60          C61   1.555       .  S
C60          C66   1.530       .  S
C60          C64   1.548       .  S
C60        C1354   1.567       .  S
C61          H68   1.086       .  S
C61          C62   1.373       .  D
C62          C63   1.542       .  S
C62        C1405   1.511       .  S
C63          C67   1.554       .  S
C63          C65   1.551       .  S
C63          H69   1.110       .  S
C64          H70   1.077       .  S
C64          C65   1.367       .  D
C65        C1453   1.505       .  S
C66          H71   1.082       .  S
C66          C67   1.363       .  D
C67        C1370   1.496       .  S
C72          C73   1.520       .  S
C72          C78   1.527       .  S
C72          C76   1.556       .  S
C72        C1306   1.545       .  S
C73          H80   1.083       .  S
C73          C74   1.354       .  D
C74          C75   1.551       .  S
C74        C1322   1.477       .  S
C75          C79   1.551       .  S
C75          C77   1.546       .  S
C75          H81   1.103       .  S
C76          H82   1.083       .  S
C76          C77   1.373       .  D
C77        C1338   1.498       .  S
C78          H83   1.086       .  S
C78          C79   1.372       .  D
C79        C1290   1.514       .  S
C84          C85   1.552       .  S
C84          C90   1.524       .  S
C84          C88   1.544       .  S
C84        C1261   1.552       .  S
C85          H92   1.080       .  S
C85          C86   1.373       .  D
C86          C87   1.552       .  S
C86        C1274   1.510       .  S
C87          C91   1.554       .  S
C87          C89   1.553       .  S
C87          H93   1.102       .  S
C88          H94   1.086       .  S
C88          C89   1.370       .  D
C89        C1341   1.509       .  S
C90          H95   1.087       .  S
C90          C91   1.358       .  D
C91        C1242   1.498       .  S
C96          C97   1.550       .  S
C96         C102   1.532       .  S
C96         C100   1.546       .  S
C96        C1210   1.561       .  S
C97         H104   1.080       .  S
C97          C98   1.388       .  D
C98          C99   1.556       .  S
C98        C1229   1.541       .  S
C99         C103   1.548       .  S
C99         C101   1.537       .  S
C99         H105   1.094       .  S
C100        H106   1.082       .  S
C100        C101   1.360       .  D
C101       C1325   1.477       .  S
C102        H107   1.086       .  S
C102        C103   1.361       .  D
C103       C1549   1.501       .  S
C108        C109   1.541       .  S
C108        C114   1.525       .  S
C108        C112   1.539       .  S
C108       C1194   1.546       .  S
C109        H116   1.084       .  S
C109        C110   1.372       .  D
C110        C111   1.557       .  S
C110       C1277   1.523       .  S
C111        C115   1.553       .  S
C111        C113   1.560       .  S
C111        H117   1.093       .  S
C112        H118   1.083       .  S
C112        C113   1.374       .  D
C113       C1226   1.523       .  S
C114        H119   1.084       .  S
C114        C115   1.356       .  D
C115       C1178   1.491       .  S
C120        C121   1.540       .  S
C120        C126   1.546       .  S
C120        C124   1.529       .  S
C120       C1114   1.547       .  S
C121        H128   1.084       .  S
C121        C122   1.366       .  D
C122        C123   1.545       .  S
C122       C1162   1.492       .  S
C123        C127   1.550       .  S
C123        C125   1.545       .  S
C123        H129   1.104       .  S
C124        H130   1.087       .  S
C124        C125   1.360       .  D
C125       C1146   1.481       .  S
C126        H131   1.083       .  S
C126        C127   1.373       .  D
C127       C1130   1.508       .  S
C132        C133   1.547       .  S
C132        C138   1.523       .  S
C132        C136   1.538       .  S
C132       C1082   1.546       .  S
C133        H140   1.079       .  S
C133        C134   1.380       .  D
C134        C135   1.543       .  S
C134       C1101   1.513       .  S
C135        C139   1.556       .  S
C135        C137   1.545       .  S
C135        H141   1.097       .  S
C136        H142   1.086       .  S
C136        C137   1.367       .  D
C137       C1165   1.502       .  S
C138        H143   1.087       .  S
C138        C139   1.354       .  D
C139       C1069   1.483       .  S
C144        C145   1.537       .  S
C144        C150   1.526       .  S
C144        C148   1.552       .  S
C144       C1034   1.550       .  S
C145        H152   1.084       .  S
C145        C146   1.370       .  D
C146        C147   1.557       .  S
C146       C1050   1.506       .  S
C147        C151   1.551       .  S
C147        C149   1.547       .  S
C147        H153   1.106       .  S
C148        H154   1.083       .  S
C148        C149   1.370       .  D
C149       C1149   1.499       .  S
C150        H155   1.087       .  S
C150        C151   1.359       .  D
C151       C1565   1.490       .  S
C156        C157   1.542       .  S
C156        C162   1.537       .  S
C156        C160   1.533       .  S
C156       C1018   1.538       .  S
C157        H164   1.082       .  S
C157        C158   1.371       .  D
C158        C159   1.541       .  S
C158       C1098   1.496       .  S
C159        C163   1.553       .  S
C159        C161   1.547       .  S
C159        H165   1.105       .  S
C160        H166   1.084       .  S
C160        C161   1.365       .  D
C161       C1053   1.503       .  S
C162        H167   1.086       .  S
C162        C163   1.360       .  D
C163       C1005   1.493       .  S
Zn168       O172   1.942       .  S
Zn168       O173   1.993       .  S
Zn168       O177   2.004       .  S
Zn168       O184   2.000       .  S
Zn169       O172   1.983       .  S
Zn169       O174   2.039       .  S
Zn169       O176   2.066       .  S
Zn169       O180   2.054       .  S
Zn170       O172   1.957       .  S
Zn170       O175   2.019       .  S
Zn170       O178   1.987       .  S
Zn170       O181   2.057       .  S
Zn171       O172   1.937       .  S
Zn171       O179   2.031       .  S
Zn171       O182   1.981       .  S
Zn171       O183   2.007       .  S
O173        C185   1.267       .  A
O174        C186   1.276       .  A
O175        C187   1.273       .  A
O176        C185   1.278       .  A
O177        C187   1.272       .  A
O178        C186   1.273       .  A
O179        C188   1.274       .  A
O180        C189   1.277       .  A
O181        C188   1.277       .  A
O182        C189   1.271       .  A
O183        C190   1.273       .  A
O184        C190   1.270       .  A
C185        C954   1.499       .  S
C186        C973   1.494       .  S
C187       C1309   1.469       .  S
C188       C1437   1.495       .  S
C189        C986   1.489       .  S
C190       C1021   1.486       .  S
Zn191       O195   1.941       .  S
Zn191       O196   2.000       .  S
Zn191       O200   2.019       .  S
Zn191       O207   1.964       .  S
Zn192       O195   1.961       .  S
Zn192       O197   2.044       .  S
Zn192       O199   2.058       .  S
Zn192       O203   1.986       .  S
Zn193       O195   1.943       .  S
Zn193       O198   2.004       .  S
Zn193       O201   1.984       .  S
Zn193       O204   1.983       .  S
Zn194       O195   1.988       .  S
Zn194       O202   2.071       .  S
Zn194       O205   2.068       .  S
Zn194       O206   2.084       .  S
O196        C208   1.271       .  A
O197        C209   1.278       .  A
O198        C210   1.270       .  A
O199        C208   1.276       .  A
O200        C210   1.273       .  A
O201        C209   1.267       .  A
O202        C211   1.279       .  A
O203        C212   1.271       .  A
O204        C211   1.270       .  A
O205        C212   1.280       .  A
O206        C213   1.281       .  A
O207        C213   1.266       .  A
C208        C906   1.492       .  S
C209        C941   1.486       .  S
C210        C922   1.472       .  S
C211       C1258   1.488       .  S
C212       C1373   1.478       .  S
C213       C1133   1.481       .  S
Zn214       O218   1.946       .  S
Zn214       O219   2.005       .  S
Zn214       O223   2.010       .  S
Zn214       O230   1.984       .  S
Zn215       O218   1.953       .  S
Zn215       O220   2.042       .  S
Zn215       O222   2.012       .  S
Zn215       O226   1.987       .  S
Zn216       O218   1.940       .  S
Zn216       O221   2.023       .  S
Zn216       O224   2.016       .  S
Zn216       O227   1.964       .  S
Zn217       O218   1.992       .  S
Zn217       O225   2.076       .  S
Zn217       O228   2.067       .  S
Zn217       O229   2.077       .  S
O219        C231   1.270       .  A
O220        C232   1.275       .  A
O221        C233   1.272       .  A
O222        C231   1.275       .  A
O223        C233   1.274       .  A
O224        C232   1.272       .  A
O225        C234   1.281       .  A
O226        C235   1.272       .  A
O227        C234   1.265       .  A
O228        C235   1.279       .  A
O229        C236   1.281       .  A
O230        C236   1.266       .  A
C231       C1197   1.499       .  S
C232       C1485   1.483       .  S
C233       C1085   1.490       .  S
C234        C893   1.496       .  S
C235        C861   1.505       .  S
C236        C874   1.500       .  S
Zn237       O241   1.928       .  S
Zn237       O242   1.971       .  S
Zn237       O246   1.985       .  S
Zn237       O253   1.969       .  S
Zn238       O241   1.956       .  S
Zn238       O243   1.973       .  S
Zn238       O245   2.033       .  S
Zn238       O249   2.021       .  S
Zn239       O241   1.980       .  S
Zn239       O244   2.094       .  S
Zn239       O247   2.084       .  S
Zn239       O250   2.066       .  S
Zn240       O241   1.958       .  S
Zn240       O248   1.972       .  S
Zn240       O251   2.016       .  S
Zn240       O252   2.024       .  S
O242        C254   1.267       .  A
O243        C255   1.266       .  A
O244        C256   1.282       .  A
O245        C254   1.275       .  A
O246        C256   1.268       .  A
O247        C255   1.284       .  A
O248        C257   1.269       .  A
O249        C258   1.272       .  A
O250        C257   1.280       .  A
O251        C258   1.272       .  A
O252        C259   1.272       .  A
O253        C259   1.268       .  A
C254        C829   1.476       .  S
C255       C1002   1.499       .  S
C256       C1213   1.495       .  S
C257       C1466   1.484       .  S
C258        C842   1.476       .  S
C259        C810   1.477       .  S
C260        C261   1.539       .  S
C260        C266   1.541   1_554  S
C260        C264   1.533       .  S
C260        C762   1.544       .  S
C261        H268   1.086       .  S
C261        C262   1.373       .  D
C262        C263   1.551   1_554  S
C262        C794   1.506       .  S
C263        C267   1.550       .  S
C263        C265   1.557   1_556  S
C263        H269   1.098       .  S
C264        H270   1.087       .  S
C264        C265   1.366       .  D
C265        C778   1.508   1_554  S
C266        H271   1.083       .  S
C266        C267   1.357       .  D
C267       C1581   1.492       .  S
C272        C273   1.563       .  S
C272        C278   1.523   1_554  S
C272        C276   1.528       .  S
C272        C877   1.549       .  S
C273        H280   1.084       .  S
C273        C274   1.389       .  D
C274        C275   1.549   1_554  S
C274        C749   1.531   1_554  S
C275        C279   1.552       .  S
C275        C277   1.537   1_556  S
C275        H281   1.102       .  S
C276        H282   1.086       .  S
C276        C277   1.361       .  D
C277        C797   1.487       .  S
C278        H283   1.083       .  S
C278        C279   1.357       .  D
C279        C826   1.478       .  S
C284        C285   1.542       .  S
C284        C290   1.546       .  S
C284        C288   1.535       .  S
C284        C925   1.546       .  S
C285        H292   1.085       .  S
C285        C286   1.366       .  D
C286        C287   1.542   1_554  S
C286        C781   1.491       .  S
C287        C291   1.543       .  S
C287        C289   1.547   1_556  S
C287        H293   1.098       .  S
C288        H294   1.081       .  S
C288        C289   1.366       .  D
C289        C733   1.509       .  S
C290        H295   1.084       .  S
C290        C291   1.368   1_554  D
C291        C714   1.504       .  S
C296        C297   1.565       .  S
C296        C302   1.521       .  S
C296        C300   1.530       .  S
C296        C957   1.552       .  S
C297        H304   1.084       .  S
C297        C298   1.379       .  D
C298        C299   1.536   1_556  S
C298        C746   1.517       .  S
C299        C303   1.546       .  S
C299        C301   1.553   1_554  S
C299        H305   1.101       .  S
C300        H306   1.071       .  S
C300        C301   1.368       .  D
C301        C730   1.500       .  S
C302        H307   1.087       .  S
C302        C303   1.357   1_556  D
C303        C698   1.485       .  S
Zn308       O312   1.947       .  S
Zn308       O313   2.027       .  S
Zn308       O317   2.014       .  S
Zn308       O324   1.979       .  S
Zn309       O312   1.950       .  S
Zn309       O314   2.017       .  S
Zn309       O316   2.010       .  S
Zn309       O320   1.999       .  S
Zn310       O312   1.965       .  S
Zn310       O315   2.046       .  S
Zn310       O318   2.029       .  S
Zn310       O321   1.995       .  S
Zn311       O312   1.991       .  S
Zn311       O319   2.061       .  S
Zn311       O322   2.065       .  S
Zn311       O323   2.073       .  S
O313        C325   1.274       .  A
O314        C326   1.273       .  A
O315        C327   1.275       .  A
O316        C325   1.273       .  A
O317        C327   1.273       .  A
O318        C326   1.275       .  A
O319        C328   1.280       .  A
O320        C329   1.271       .  A
O321        C328   1.271       .  A
O322        C329   1.278       .  A
O323        C330   1.278       .  A
O324        C330   1.269       .  A
C325        C666   1.472       .  S
C326        C717   1.477       .  S
C327        C685   1.485       .  S
C328       C1293   1.477       .  S
C329       C1037   1.488       .  S
C330       C1357   1.483       .  S
C331        C332   1.536       .  S
C331        C337   1.523   1_545  S
C331        C335   1.551       .  S
C331        C845   1.552       .  S
C332        H339   1.086       .  S
C332        C333   1.358   1_545  D
C333        C334   1.543       .  S
C333        C650   1.483       .  S
C334        C338   1.547       .  S
C334        C336   1.566       .  S
C334        H340   1.097       .  S
C335        H341   1.075       .  S
C335        C336   1.387   1_545  D
C336        C637   1.538       .  S
C337        H342   1.087       .  S
C337        C338   1.355       .  D
C338       C1597   1.488       .  S
C343        C344   1.544       .  S
C343        C349   1.549       .  S
C343        C347   1.533       .  S
C343        C989   1.548       .  S
C344        H351   1.085       .  S
C344        C345   1.367       .  D
C345        C346   1.544   1_545  S
C345        C618   1.490       .  S
C346        C350   1.544       .  S
C346        C348   1.536   1_565  S
C346        H352   1.103       .  S
C347        H353   1.087       .  S
C347        C348   1.360       .  D
C348        C653   1.485       .  S
C349        H354   1.083       .  S
C349        C350   1.372   1_545  D
C350        C669   1.499       .  S
C355        C356   1.554       .  S
C355        C361   1.529   1_545  S
C355        C359   1.541       .  S
C355        C890   1.557       .  S
C356        H363   1.084       .  S
C356        C357   1.366   1_545  D
C357        C358   1.557       .  S
C357        C634   1.517       .  S
C358        C362   1.544       .  S
C358        C360   1.563       .  S
C358        H364   1.107       .  S
C359        H365   1.082       .  S
C359        C360   1.378   1_545  D
C360        C602   1.517       .  S
C361        H366   1.087       .  S
C361        C362   1.359       .  D
C362        C586   1.491       .  S
C367        C368   1.535       .  S
C367        C373   1.546   1_545  S
C367        C371   1.522       .  S
C367        C570   1.542       .  S
C368        H375   1.081       .  S
C368        C369   1.382   1_545  D
C369        C370   1.557       .  S
C369        C605   1.528       .  S
C370        C374   1.536       .  S
C370        C372   1.550   1_565  S
C370        H376   1.093       .  S
C371        H377   1.087       .  S
C371        C372   1.358       .  D
C372        C621   1.484       .  S
C373        H378   1.084       .  S
C373        C374   1.361       .  D
C374        C909   1.485       .  S
Zn379       O383   1.950       .  S
Zn379       O384   1.994       .  S
Zn379       O388   2.032       .  S
Zn379       O395   2.028       .  S
Zn380       O383   1.978       .  S
Zn380       O385   2.050       .  S
Zn380       O387   2.066       .  S
Zn380       O391   2.090       .  S
Zn381       O383   1.951       .  S
Zn381       O386   2.005       .  S
Zn381       O389   1.982       .  S
Zn381       O392   2.028       .  S
Zn382       O383   1.935       .  S
Zn382       O390   1.988       .  S
Zn382       O393   1.966       .  S
Zn382       O394   1.995       .  S
O384        C396   1.271       .  A
O385        C397   1.278       .  A
O386        C398   1.272       .  A
O387        C396   1.279       .  A
O388        C398   1.276       .  A
O389        C397   1.270       .  A
O390        C399   1.267       .  A
O391        C400   1.281       .  A
O392        C399   1.274       .  A
O393        C400   1.267       .  A
O394        C401   1.269       .  A
O395        C401   1.275       .  A
C396       C1389   1.496       .  S
C397       C1117   1.487       .  S
C398        C589   1.487       .  S
C399        C765   1.499       .  S
C400       C1181   1.509       .  S
C401        C554   1.470       .  S
C402        C403   1.537       .  S
C402        C408   1.530       .  S
C402        C406   1.551       .  S
C402       C1613   1.547       .  S
C403        H410   1.083       .  S
C403        C404   1.366       .  D
C404        C405   1.550   1_655  S
C404        C525   1.504       .  S
C405        C409   1.549       .  S
C405        C407   1.547   1_455  S
C405        H411   1.110       .  S
C406        H412   1.078       .  S
C406        C407   1.370       .  D
C407        C541   1.501       .  S
C408        H413   1.085       .  S
C408        C409   1.360   1_655  D
C409        C682   1.489       .  S
C414        C415   1.537       .  S
C414        C420   1.521       .  S
C414        C418   1.559       .  S
C414        C938   1.546       .  S
C415        H422   1.085       .  S
C415        C416   1.366       .  D
C416        C417   1.547   1_455  S
C416        C506   1.497       .  S
C417        C421   1.550       .  S
C417        C419   1.546   1_655  S
C417        H423   1.109       .  S
C418        H424   1.076       .  S
C418        C419   1.375       .  D
C419        C538   1.507       .  S
C420        H425   1.087       .  S
C420        C421   1.353   1_455  D
C421        C557   1.483       .  S
C426        C427   1.533       .  S
C426        C432   1.536       .  S
C426        C430   1.544       .  S
C426        C813   1.539       .  S
C427        H434   1.079       .  S
C427        C428   1.364       .  D
C428        C429   1.548   1_655  S
C428        C493   1.496       .  S
C429        C433   1.537       .  S
C429        C431   1.543   1_455  S
C429        H435   1.103       .  S
C430        H436   1.081       .  S
C430        C431   1.372       .  D
C431        C522   1.503       .  S
C432        H437   1.085       .  S
C432        C433   1.356   1_655  D
C433        C970   1.477       .  S
C438        C439   1.534       .  S
C438        C444   1.540       .  S
C438        C442   1.545       .  S
C438        C477   1.541       .  S
C439        H446   1.078       .  S
C439        C440   1.365       .  D
C440        C441   1.550       .  S
C440        C490   1.503       .  S
C441        C445   1.543   1_455  S
C441        C443   1.541       .  S
C441        H447   1.105   1_455  S
C442        H448   1.083       .  S
C442        C443   1.367       .  D
C443        C509   1.501       .  S
C444        H449   1.085       .  S
C444        C445   1.364   1_455  D
C445        C858   1.487       .  S
Zn450       O454   1.950       .  S
Zn450       O455   1.958       .  S
Zn450       O459   2.028       .  S
Zn450       O466   2.005       .  S
Zn451       O454   1.989       .  S
Zn451       O456   2.079       .  S
Zn451       O458   2.082       .  S
Zn451       O462   2.091       .  S
Zn452       O454   1.933       .  S
Zn452       O457   2.000       .  S
Zn452       O460   1.999       .  S
Zn452       O463   1.982       .  S
Zn453       O454   1.947       .  S
Zn453       O461   2.022       .  S
Zn453       O464   1.979       .  S
Zn453       O465   2.022       .  S
O455        C467   1.264       .  A
O456        C468   1.280       .  A
O457        C469   1.273       .  A
O458        C467   1.285       .  A
O459        C469   1.270       .  A
O460        C468   1.271       .  A
O461        C470   1.273       .  A
O462        C471   1.281       .  A
O463        C470   1.271       .  A
O464        C471   1.269       .  A
O465        C472   1.273       .  A
O466        C472   1.270       .  A
C467       C1066   1.495       .  S
C468       C1245   1.512       .  S
C469        C701   1.496       .  S
C470        C474   1.472       .  S
C471       C1421   1.492       .  S
C472        C573   1.494       .  S
C473        C474   1.397       .  A
C473        C478   1.401       .  A
C473        H480   1.086       .  S
C474        C475   1.408       .  A
C475        C482   1.519       .  S
C475        C476   1.409       .  A
C476        C477   1.419       .  A
C476        H481   1.080       .  S
C477        C478   1.431       .  A
C478        C479   1.523       .  S
C479        F483   1.383       .  S
C479        F484   1.376       .  S
C479        F485   1.386       .  S
C482        F486   1.382       .  S
C482        F487   1.384       .  S
C482        F488   1.384       .  S
C489        C490   1.405   1_655  A
C489        C494   1.404   1_554  A
C489        H496   1.082       .  S
C490        C491   1.428       .  A
C491        C498   1.523       .  S
C491        C492   1.407   1_554  A
C492        C493   1.403   1_455  A
C492        H497   1.082       .  S
C493        C494   1.423       .  A
C494        C495   1.523       .  S
C495        F499   1.385   1_556  S
C495        F500   1.381       .  S
C495        F501   1.378       .  S
C498        F502   1.382       .  S
C498        F503   1.377       .  S
C498        F504   1.385   1_554  S
C505        C506   1.402       .  A
C505        C510   1.412       .  A
C505        H512   1.083       .  S
C506        C507   1.419       .  A
C507        C514   1.516       .  S
C507        C508   1.411       .  A
C508        C509   1.405       .  A
C508        H513   1.083       .  S
C509        C510   1.421       .  A
C510        C511   1.515       .  S
C511        F515   1.383       .  S
C511        F516   1.381   1_455  S
C511        F517   1.378       .  S
C514        F518   1.383   1_455  S
C514        F519   1.380       .  S
C514        F520   1.385   1_455  S
C521        C522   1.405       .  A
C521        C526   1.410       .  A
C521        H528   1.083       .  S
C522        C523   1.421       .  A
C523        C530   1.517       .  S
C523        C524   1.413       .  A
C524        C525   1.405       .  A
C524        H529   1.082       .  S
C525        C526   1.424       .  A
C526        C527   1.520       .  S
C527        F531   1.379       .  S
C527        F532   1.385       .  S
C527        F533   1.377   1_655  S
C530        F534   1.381   1_655  S
C530        F535   1.378       .  S
C530        F536   1.384       .  S
C537        C538   1.406   1_655  A
C537        C542   1.409   1_554  A
C537        H544   1.081       .  S
C538        C539   1.424       .  A
C539        C546   1.519       .  S
C539        C540   1.409   1_554  A
C540        C541   1.404   1_455  A
C540        H545   1.083       .  S
C541        C542   1.425       .  A
C542        C543   1.522       .  S
C543        F547   1.385   1_556  S
C543        F548   1.384       .  S
C543        F549   1.381       .  S
C546        F550   1.383       .  S
C546        F551   1.382       .  S
C546        F552   1.385   1_554  S
C553        C554   1.395       .  A
C553        C558   1.404       .  A
C553        H560   1.083       .  S
C554        C555   1.416       .  A
C555        C562   1.518       .  S
C555        C556   1.410       .  A
C556        C557   1.402       .  A
C556        H561   1.083       .  S
C557        C558   1.424       .  A
C558        C559   1.520       .  S
C559        F563   1.379       .  S
C559        F564   1.381       .  S
C559        F565   1.385       .  S
C562        F566   1.384       .  S
C562        F567   1.383       .  S
C562        F568   1.384       .  S
C569        C570   1.409       .  A
C569        C574   1.404       .  A
C569        H576   1.078       .  S
C570        C571   1.430       .  A
C571        C578   1.525       .  S
C571        C572   1.408       .  A
C572        C573   1.405       .  A
C572        H577   1.084       .  S
C573        C574   1.423       .  A
C574        C575   1.523       .  S
C575        F579   1.385       .  S
C575        F580   1.383       .  S
C575        F581   1.384       .  S
C578        F582   1.378       .  S
C578        F583   1.383       .  S
C578        F584   1.385       .  S
C585        C586   1.402       .  A
C585        C590   1.407       .  A
C585        H592   1.083       .  S
C586        C587   1.419       .  A
C587        C594   1.514       .  S
C587        C588   1.409       .  A
C588        C589   1.403       .  A
C588        H593   1.083       .  S
C589        C590   1.423       .  A
C590        C591   1.522       .  S
C591        F595   1.385       .  S
C591        F596   1.384       .  S
C591        F597   1.383       .  S
C594        F598   1.380       .  S
C594        F599   1.378       .  S
C594        F600   1.385       .  S
C601        C602   1.405       .  A
C601        C606   1.417   1_655  A
C601        H608   1.069       .  S
C602        C603   1.421   1_655  A
C603        C610   1.513   1_565  S
C603        C604   1.401       .  A
C604        C605   1.410       .  A
C604        H609   1.082   1_565  S
C605        C606   1.431       .  A
C606        C607   1.518       .  S
C607        F611   1.383       .  S
C607        F612   1.378       .  S
C607        F613   1.382       .  S
C610        F614   1.382       .  S
C610        F615   1.371   1_445  S
C610        F616   1.385   1_545  S
C617        C618   1.401       .  A
C617        C622   1.403       .  A
C617        H624   1.079       .  S
C618        C619   1.422       .  A
C619        C626   1.517   1_545  S
C619        C620   1.408   1_545  A
C620        C621   1.404   1_565  A
C620        H625   1.085       .  S
C621        C622   1.418       .  A
C622        C623   1.518       .  S
C623        F627   1.384       .  S
C623        F628   1.376       .  S
C623        F629   1.383       .  S
C626        F630   1.383       .  S
C626        F631   1.379   1_565  S
C626        F632   1.384   1_565  S
C633        C634   1.400       .  A
C633        C638   1.419       .  A
C633        H640   1.069       .  S
C634        C635   1.424       .  A
C635        C642   1.520       .  S
C635        C636   1.416       .  A
C636        C637   1.414       .  A
C636        H641   1.084       .  S
C637        C638   1.433       .  A
C638        C639   1.516       .  S
C639        F643   1.382       .  S
C639        F644   1.382       .  S
C639        F645   1.373       .  S
C642        F646   1.380       .  S
C642        F647   1.383   1_565  S
C642        F648   1.384       .  S
C649        C650   1.404       .  A
C649        C654   1.413   1_655  A
C649        H656   1.083       .  S
C650        C651   1.419   1_565  A
C651        C658   1.521       .  S
C651        C652   1.398   1_655  A
C652        C653   1.401       .  A
C652        H657   1.084       .  S
C653        C654   1.417   1_545  A
C654        C655   1.517       .  S
C655        F659   1.384       .  S
C655        F660   1.383       .  S
C655        F661   1.381       .  S
C658        F662   1.382       .  S
C658        F663   1.382       .  S
C658        F664   1.381   1_655  S
C665        C666   1.398       .  A
C665        C670   1.408       .  A
C665        H672   1.084       .  S
C666        C667   1.407       .  A
C667        C674   1.515       .  S
C667        C668   1.407       .  A
C668        C669   1.410       .  A
C668        H673   1.083       .  S
C669        C670   1.424       .  A
C670        C671   1.515       .  S
C671        F675   1.385       .  S
C671        F676   1.373       .  S
C671        F677   1.379       .  S
C674        F678   1.383       .  S
C674        F679   1.383       .  S
C674        F680   1.384       .  S
C681        C682   1.407       .  A
C681        C686   1.413       .  A
C681        H688   1.083       .  S
C682        C683   1.413       .  A
C683        C690   1.512       .  S
C683        C684   1.407       .  A
C684        C685   1.404       .  A
C684        H689   1.084       .  S
C685        C686   1.415       .  A
C686        C687   1.515       .  S
C687        F691   1.384       .  S
C687        F692   1.384       .  S
C687        F693   1.383       .  S
C690        F694   1.380       .  S
C690        F695   1.383       .  S
C690        F696   1.385       .  S
C697        C698   1.404       .  A
C697        C702   1.416       .  A
C697        H704   1.081       .  S
C698        C699   1.420       .  A
C699        C706   1.525       .  S
C699        C700   1.396       .  A
C700        C701   1.405       .  A
C700        H705   1.084       .  S
C701        C702   1.426       .  A
C702        C703   1.520       .  S
C703        F707   1.385       .  S
C703        F708   1.383       .  S
C703        F709   1.383       .  S
C706        F710   1.383       .  S
C706        F711   1.379       .  S
C706        F712   1.384       .  S
C713        C714   1.414       .  A
C713        C718   1.408       .  A
C713        H720   1.083       .  S
C714        C715   1.426       .  A
C715        C722   1.519       .  S
C715        C716   1.409       .  A
C716        C717   1.400       .  A
C716        H721   1.083       .  S
C717        C718   1.409       .  A
C718        C719   1.517       .  S
C719        F723   1.385       .  S
C719        F724   1.382       .  S
C719        F725   1.384       .  S
C722        F726   1.378       .  S
C722        F727   1.381       .  S
C722        F728   1.385       .  S
C729        C730   1.401   1_554  A
C729        C734   1.402   1_545  A
C729        H736   1.079       .  S
C730        C731   1.424       .  A
C731        C738   1.521       .  S
C731        C732   1.406   1_545  A
C732        C733   1.408   1_556  A
C732        H737   1.080       .  S
C733        C734   1.427       .  A
C734        C735   1.516       .  S
C735        F739   1.386   1_565  S
C735        F740   1.375       .  S
C735        F741   1.383       .  S
C738        F742   1.383       .  S
C738        F743   1.383       .  S
C738        F744   1.385   1_545  S
C745        C746   1.402       .  A
C745        C750   1.412       .  A
C745        H752   1.084       .  S
C746        C747   1.426   1_556  A
C747        C754   1.517       .  S
C747        C748   1.413       .  A
C748        C749   1.410   1_554  A
C748        H753   1.082       .  S
C749        C750   1.435       .  A
C750        C751   1.514       .  S
C751        F755   1.386       .  S
C751        F756   1.383       .  S
C751        F757   1.368       .  S
C754        F758   1.381       .  S
C754        F759   1.373       .  S
C754        F760   1.386       .  S
C761        C762   1.408       .  A
C761        C766   1.403       .  A
C761        H768   1.075       .  S
C762        C763   1.430       .  A
C763        C770   1.525       .  S
C763        C764   1.409       .  A
C764        C765   1.408       .  A
C764        H769   1.084       .  S
C765        C766   1.425       .  A
C766        C767   1.526       .  S
C767        F771   1.385       .  S
C767        F772   1.383       .  S
C767        F773   1.384       .  S
C770        F774   1.377       .  S
C770        F775   1.383       .  S
C770        F776   1.385       .  S
C777        C778   1.411   1_554  A
C777        C782   1.414       .  A
C777        H784   1.084       .  S
C778        C779   1.424   1_556  A
C779        C786   1.510       .  S
C779        C780   1.402       .  A
C780        C781   1.397       .  A
C780        H785   1.082       .  S
C781        C782   1.421       .  A
C782        C783   1.520       .  S
C783        F787   1.383   1_554  S
C783        F788   1.381       .  S
C783        F789   1.383       .  S
C786        F790   1.377   1_554  S
C786        F791   1.377       .  S
C786        F792   1.386       .  S
C793        C794   1.409       .  A
C793        C798   1.397   1_565  A
C793        H800   1.084       .  S
C794        C795   1.428   1_554  A
C795        C802   1.518       .  S
C795        C796   1.412   1_565  A
C796        C797   1.401   1_556  A
C796        H801   1.081       .  S
C797        C798   1.415       .  A
C798        C799   1.522       .  S
C799        F803   1.385       .  S
C799        F804   1.382       .  S
C799        F805   1.383       .  S
C802        F806   1.379       .  S
C802        F807   1.373       .  S
C802        F808   1.384       .  S
C809        C810   1.403       .  A
C809        C814   1.401       .  A
C809        H816   1.085       .  S
C810        C811   1.410       .  A
C811        C818   1.521       .  S
C811        C812   1.406       .  A
C812        C813   1.419       .  A
C812        H817   1.079       .  S
C813        C814   1.427       .  A
C814        C815   1.522       .  S
C815        F819   1.383       .  S
C815        F820   1.377       .  S
C815        F821   1.385       .  S
C818        F822   1.383       .  S
C818        F823   1.383       .  S
C818        F824   1.385       .  S
C825        C826   1.401       .  A
C825        C830   1.400       .  A
C825        H832   1.084       .  S
C826        C827   1.418       .  A
C827        C834   1.516       .  S
C827        C828   1.406       .  A
C828        C829   1.402       .  A
C828        H833   1.085       .  S
C829        C830   1.420       .  A
C830        C831   1.522       .  S
C831        F835   1.385       .  S
C831        F836   1.384       .  S
C831        F837   1.383       .  S
C834        F838   1.379       .  S
C834        F839   1.384       .  S
C834        F840   1.381       .  S
C841        C842   1.401       .  A
C841        C846   1.415       .  A
C841        H848   1.084       .  S
C842        C843   1.402       .  A
C843        C850   1.519       .  S
C843        C844   1.403       .  A
C844        C845   1.423       .  A
C844        H849   1.081       .  S
C845        C846   1.432       .  A
C846        C847   1.519       .  S
C847        F851   1.385       .  S
C847        F852   1.383       .  S
C847        F853   1.382       .  S
C850        F854   1.384       .  S
C850        F855   1.383       .  S
C850        F856   1.384       .  S
C857        C858   1.404       .  A
C857        C862   1.411       .  A
C857        H864   1.083       .  S
C858        C859   1.411       .  A
C859        C866   1.519       .  S
C859        C860   1.408       .  A
C860        C861   1.416       .  A
C860        H865   1.081       .  S
C861        C862   1.424       .  A
C862        C863   1.519       .  S
C863        F867   1.385       .  S
C863        F868   1.383       .  S
C863        F869   1.383       .  S
C866        F870   1.380       .  S
C866        F871   1.382       .  S
C866        F872   1.384       .  S
C873        C874   1.400       .  A
C873        C878   1.411       .  A
C873        H880   1.084       .  S
C874        C875   1.425       .  A
C875        C882   1.522       .  S
C875        C876   1.410       .  A
C876        C877   1.409       .  A
C876        H881   1.080       .  S
C877        C878   1.439       .  A
C878        C879   1.525       .  S
C879        F883   1.385       .  S
C879        F884   1.383       .  S
C879        F885   1.378       .  S
C882        F886   1.383       .  S
C882        F887   1.384       .  S
C882        F888   1.385       .  S
C889        C890   1.411       .  A
C889        C894   1.405       .  A
C889        H896   1.076       .  S
C890        C891   1.437       .  A
C891        C898   1.519       .  S
C891        C892   1.413       .  A
C892        C893   1.399       .  A
C892        H897   1.084       .  S
C893        C894   1.425       .  A
C894        C895   1.527       .  S
C895        F899   1.385       .  S
C895        F900   1.384       .  S
C895        F901   1.383       .  S
C898        F902   1.386       .  S
C898        F903   1.375       .  S
C898        F904   1.379       .  S
C905        C906   1.411       .  A
C905        C910   1.407       .  A
C905        H912   1.083       .  S
C906        C907   1.418       .  A
C907        C914   1.516       .  S
C907        C908   1.409       .  A
C908        C909   1.403       .  A
C908        H913   1.082       .  S
C909        C910   1.413       .  A
C910        C911   1.520       .  S
C911        F915   1.385       .  S
C911        F916   1.383       .  S
C911        F917   1.382       .  S
C914        F918   1.383       .  S
C914        F919   1.383       .  S
C914        F920   1.385       .  S
C921        C922   1.394       .  A
C921        C926   1.404       .  A
C921        H928   1.083       .  S
C922        C923   1.406       .  A
C923        C930   1.516       .  S
C923        C924   1.405       .  A
C924        C925   1.417       .  A
C924        H929   1.077       .  S
C925        C926   1.437       .  A
C926        C927   1.522       .  S
C927        F931   1.385       .  S
C927        F932   1.369       .  S
C927        F933   1.383       .  S
C930        F934   1.383       .  S
C930        F935   1.381       .  S
C930        F936   1.385       .  S
C937        C938   1.414       .  A
C937        C942   1.407       .  A
C937        H944   1.071       .  S
C938        C939   1.441       .  A
C939        C946   1.529       .  S
C939        C940   1.405       .  A
C940        C941   1.395       .  A
C940        H945   1.086       .  S
C941        C942   1.415       .  A
C942        C943   1.520       .  S
C943        F947   1.385       .  S
C943        F948   1.382       .  S
C943        F949   1.383       .  S
C946        F950   1.384       .  S
C946        F951   1.372       .  S
C946        F952   1.384       .  S
C953        C954   1.402       .  A
C953        C958   1.415       .  A
C953        H960   1.083       .  S
C954        C955   1.422       .  A
C955        C962   1.523       .  S
C955        C956   1.407       .  A
C956        C957   1.410       .  A
C956        H961   1.077       .  S
C957        C958   1.440       .  A
C958        C959   1.527       .  S
C959        F963   1.385       .  S
C959        F964   1.380       .  S
C959        F965   1.382       .  S
C962        F966   1.381       .  S
C962        F967   1.382       .  S
C962        F968   1.385       .  S
C969        C970   1.403       .  A
C969        C974   1.406       .  A
C969        H976   1.084       .  S
C970        C971   1.408       .  A
C971        C978   1.518       .  S
C971        C972   1.404       .  A
C972        C973   1.414       .  A
C972        H977   1.082       .  S
C973        C974   1.423       .  A
C974        C975   1.521       .  S
C975        F979   1.385       .  S
C975        F980   1.383       .  S
C975        F981   1.384       .  S
C978        F982   1.383       .  S
C978        F983   1.384       .  S
C978        F984   1.381       .  S
C985        C986   1.400       .  A
C985        C990   1.404       .  A
C985        H992   1.085       .  S
C986        C987   1.414       .  A
C987        C994   1.520       .  S
C987        C988   1.413       .  A
C988        C989   1.418       .  A
C988        H993   1.075       .  S
C989        C990   1.435       .  A
C990        C991   1.527       .  S
C991        F995   1.383       .  S
C991        F996   1.385       .  S
C991        F997   1.375       .  S
C994        F998   1.383       .  S
C994        F999   1.383       .  S
C994       F1000   1.385       .  S
C1001      C1002   1.402       .  A
C1001      C1006   1.405       .  A
C1001      H1008   1.084       .  S
C1002      C1003   1.433       .  A
C1003      C1010   1.522       .  S
C1003      C1004   1.410       .  A
C1004      C1005   1.396       .  A
C1004      H1009   1.082       .  S
C1005      C1006   1.427       .  A
C1006      C1007   1.522       .  S
C1007      F1011   1.385       .  S
C1007      F1012   1.382       .  S
C1007      F1013   1.380       .  S
C1010      F1014   1.383       .  S
C1010      F1015   1.384       .  S
C1010      F1016   1.386       .  S
C1017      C1018   1.408       .  A
C1017      C1022   1.403       .  A
C1017      H1024   1.081       .  S
C1018      C1019   1.428       .  A
C1019      C1026   1.521       .  S
C1019      C1020   1.405       .  A
C1020      C1021   1.404       .  A
C1020      H1025   1.085       .  S
C1021      C1022   1.422       .  A
C1022      C1023   1.523       .  S
C1023      F1027   1.385       .  S
C1023      F1028   1.384       .  S
C1023      F1029   1.382       .  S
C1026      F1030   1.377       .  S
C1026      F1031   1.383       .  S
C1026      F1032   1.386       .  S
C1033      C1034   1.418       .  A
C1033      C1038   1.412       .  A
C1033      H1040   1.075       .  S
C1034      C1035   1.437       .  A
C1035      C1042   1.528       .  S
C1035      C1036   1.408       .  A
C1036      C1037   1.399       .  A
C1036      H1041   1.085       .  S
C1037      C1038   1.412       .  A
C1038      C1039   1.519       .  S
C1039      F1043   1.385       .  S
C1039      F1044   1.384       .  S
C1039      F1045   1.382       .  S
C1042      F1046   1.383       .  S
C1042      F1047   1.378       .  S
C1042      F1048   1.385       .  S
C1049      C1050   1.402       .  A
C1049      C1054   1.403   1_565  A
C1049      H1056   1.083       .  S
C1050      C1051   1.420       .  A
C1051      C1058   1.514       .  S
C1051      C1052   1.420   1_565  A
C1052      C1053   1.407       .  A
C1052      H1057   1.082       .  S
C1053      C1054   1.423       .  A
C1054      C1055   1.520       .  S
C1055      F1059   1.385       .  S
C1055      F1060   1.379       .  S
C1055      F1061   1.380       .  S
C1058      F1062   1.380       .  S
C1058      F1063   1.381       .  S
C1058      F1064   1.385   1_565  S
C1065      C1066   1.401       .  A
C1065      C1070   1.404       .  A
C1065      H1072   1.084       .  S
C1066      C1067   1.433       .  A
C1067      C1074   1.524       .  S
C1067      C1068   1.408       .  A
C1068      C1069   1.395       .  A
C1068      H1073   1.084       .  S
C1069      C1070   1.426       .  A
C1070      C1071   1.520       .  S
C1071      F1075   1.383       .  S
C1071      F1076   1.374       .  S
C1071      F1077   1.384       .  S
C1074      F1078   1.384       .  S
C1074      F1079   1.382       .  S
C1074      F1080   1.385       .  S
C1081      C1082   1.417       .  A
C1081      C1086   1.410       .  A
C1081      H1088   1.074       .  S
C1082      C1083   1.433       .  A
C1083      C1090   1.527       .  S
C1083      C1084   1.404       .  A
C1084      C1085   1.402       .  A
C1084      H1089   1.084       .  S
C1085      C1086   1.415       .  A
C1086      C1087   1.521       .  S
C1087      F1091   1.385       .  S
C1087      F1092   1.384       .  S
C1087      F1093   1.382       .  S
C1090      F1094   1.383       .  S
C1090      F1095   1.375       .  S
C1090      F1096   1.384       .  S
C1097      C1098   1.406       .  A
C1097      C1102   1.409       .  A
C1097      H1104   1.080       .  S
C1098      C1099   1.415       .  A
C1099      C1106   1.516       .  S
C1099      C1100   1.395       .  A
C1100      C1101   1.410       .  A
C1100      H1105   1.083       .  S
C1101      C1102   1.430       .  A
C1102      C1103   1.520       .  S
C1103      F1107   1.385       .  S
C1103      F1108   1.382       .  S
C1103      F1109   1.374       .  S
C1106      F1110   1.382       .  S
C1106      F1111   1.372       .  S
C1106      F1112   1.385       .  S
C1113      C1114   1.416       .  A
C1113      C1118   1.408       .  A
C1113      H1120   1.076       .  S
C1114      C1115   1.434       .  A
C1115      C1122   1.527       .  S
C1115      C1116   1.407       .  A
C1116      C1117   1.403       .  A
C1116      H1121   1.085       .  S
C1117      C1118   1.412       .  A
C1118      C1119   1.520       .  S
C1119      F1123   1.384       .  S
C1119      F1124   1.383       .  S
C1119      F1125   1.384       .  S
C1122      F1126   1.377       .  S
C1122      F1127   1.383       .  S
C1122      F1128   1.385       .  S
C1129      C1130   1.408       .  A
C1129      C1134   1.404       .  A
C1129      H1136   1.083       .  S
C1130      C1131   1.427       .  A
C1131      C1138   1.515       .  S
C1131      C1132   1.415       .  A
C1132      C1133   1.401       .  A
C1132      H1137   1.083       .  S
C1133      C1134   1.416       .  A
C1134      C1135   1.520       .  S
C1135      F1139   1.385       .  S
C1135      F1140   1.381       .  S
C1135      F1141   1.383       .  S
C1138      F1142   1.382       .  S
C1138      F1143   1.373       .  S
C1138      F1144   1.385       .  S
C1145      C1146   1.399       .  A
C1145      C1150   1.408       .  A
C1145      H1152   1.082       .  S
C1146      C1147   1.420       .  A
C1147      C1154   1.523       .  S
C1147      C1148   1.404       .  A
C1148      C1149   1.404       .  A
C1148      H1153   1.083       .  S
C1149      C1150   1.421       .  A
C1150      C1151   1.511       .  S
C1151      F1155   1.385       .  S
C1151      F1156   1.379       .  S
C1151      F1157   1.377       .  S
C1154      F1158   1.382       .  S
C1154      F1159   1.381       .  S
C1154      F1160   1.384       .  S
C1161      C1162   1.398       .  A
C1161      C1166   1.406   1_565  A
C1161      H1168   1.082       .  S
C1162      C1163   1.415       .  A
C1163      C1170   1.515       .  S
C1163      C1164   1.419   1_565  A
C1164      C1165   1.409       .  A
C1164      H1169   1.083       .  S
C1165      C1166   1.424       .  A
C1166      C1167   1.519       .  S
C1167      F1171   1.385   1_545  S
C1167      F1172   1.377       .  S
C1167      F1173   1.380       .  S
C1170      F1174   1.383       .  S
C1170      F1175   1.383       .  S
C1170      F1176   1.384       .  S
C1177      C1178   1.408       .  A
C1177      C1182   1.412       .  A
C1177      H1184   1.083       .  S
C1178      C1179   1.408       .  A
C1179      C1186   1.519       .  S
C1179      C1180   1.408       .  A
C1180      C1181   1.419       .  A
C1180      H1185   1.081       .  S
C1181      C1182   1.422       .  A
C1182      C1183   1.518       .  S
C1183      F1187   1.385       .  S
C1183      F1188   1.383       .  S
C1183      F1189   1.383       .  S
C1186      F1190   1.381       .  S
C1186      F1191   1.382       .  S
C1186      F1192   1.384       .  S
C1193      C1194   1.410       .  A
C1193      C1198   1.409       .  A
C1193      H1200   1.080       .  S
C1194      C1195   1.427       .  A
C1195      C1202   1.522       .  S
C1195      C1196   1.403       .  A
C1196      C1197   1.407       .  A
C1196      H1201   1.084       .  S
C1197      C1198   1.425       .  A
C1198      C1199   1.523       .  S
C1199      F1203   1.385       .  S
C1199      F1204   1.384       .  S
C1199      F1205   1.383       .  S
C1202      F1206   1.384       .  S
C1202      F1207   1.377       .  S
C1202      F1208   1.385       .  S
C1209      C1210   1.421       .  A
C1209      C1214   1.413       .  A
C1209      H1216   1.074       .  S
C1210      C1211   1.436       .  A
C1211      C1218   1.528       .  S
C1211      C1212   1.415       .  A
C1212      C1213   1.404       .  A
C1212      H1217   1.084       .  S
C1213      C1214   1.410       .  A
C1214      C1215   1.519       .  S
C1215      F1219   1.385       .  S
C1215      F1220   1.384       .  S
C1215      F1221   1.382       .  S
C1218      F1222   1.381       .  S
C1218      F1223   1.378       .  S
C1218      F1224   1.385       .  S
C1225      C1226   1.405       .  A
C1225      C1230   1.419   1_554  A
C1225      H1232   1.080       .  S
C1226      C1227   1.425   1_554  A
C1227      C1234   1.517   1_556  S
C1227      C1228   1.413       .  A
C1228      C1229   1.413       .  A
C1228      H1233   1.083       .  S
C1229      C1230   1.439       .  A
C1230      C1231   1.522       .  S
C1231      F1235   1.386       .  S
C1231      F1236   1.376       .  S
C1231      F1237   1.382       .  S
C1234      F1238   1.383       .  S
C1234      F1239   1.378       .  S
C1234      F1240   1.385   1_554  S
C1241      C1242   1.406       .  A
C1241      C1246   1.411       .  A
C1241      H1248   1.083       .  S
C1242      C1243   1.411       .  A
C1243      C1250   1.518       .  S
C1243      C1244   1.414       .  A
C1244      C1245   1.418       .  A
C1244      H1249   1.082       .  S
C1245      C1246   1.425       .  A
C1246      C1247   1.520       .  S
C1247      F1251   1.385       .  S
C1247      F1252   1.383       .  S
C1247      F1253   1.383       .  S
C1250      F1254   1.382       .  S
C1250      F1255   1.383       .  S
C1250      F1256   1.385       .  S
C1257      C1258   1.400       .  A
C1257      C1262   1.408       .  A
C1257      H1264   1.086       .  S
C1258      C1259   1.410       .  A
C1259      C1266   1.519       .  S
C1259      C1260   1.412       .  A
C1260      C1261   1.420       .  A
C1260      H1265   1.073       .  S
C1261      C1262   1.437       .  A
C1262      C1263   1.529       .  S
C1263      F1267   1.383       .  S
C1263      F1268   1.384       .  S
C1263      F1269   1.374       .  S
C1266      F1270   1.383       .  S
C1266      F1271   1.384       .  S
C1266      F1272   1.384       .  S
C1273      C1274   1.408       .  A
C1273      C1278   1.413       .  A
C1273      H1280   1.081       .  S
C1274      C1275   1.415       .  A
C1275      C1282   1.516       .  S
C1275      C1276   1.404       .  A
C1276      C1277   1.415       .  A
C1276      H1281   1.083       .  S
C1277      C1278   1.429       .  A
C1278      C1279   1.517       .  S
C1279      F1283   1.385       .  S
C1279      F1284   1.381       .  S
C1279      F1285   1.375       .  S
C1282      F1286   1.382       .  S
C1282      F1287   1.377       .  S
C1282      F1288   1.385       .  S
C1289      C1290   1.411       .  A
C1289      C1294   1.402       .  A
C1289      H1296   1.082       .  S
C1290      C1291   1.428       .  A
C1291      C1298   1.518       .  S
C1291      C1292   1.417       .  A
C1292      C1293   1.402       .  A
C1292      H1297   1.083       .  S
C1293      C1294   1.411       .  A
C1294      C1295   1.522       .  S
C1295      F1299   1.384       .  S
C1295      F1300   1.383       .  S
C1295      F1301   1.383       .  S
C1298      F1302   1.373       .  S
C1298      F1303   1.383       .  S
C1298      F1304   1.385       .  S
C1305      C1306   1.413       .  A
C1305      C1310   1.406       .  A
C1305      H1312   1.076       .  S
C1306      C1307   1.446       .  A
C1307      C1314   1.532       .  S
C1307      C1308   1.407       .  A
C1308      C1309   1.389       .  A
C1308      H1313   1.084       .  S
C1309      C1310   1.409       .  A
C1310      C1311   1.520       .  S
C1311      F1315   1.384       .  S
C1311      F1316   1.382       .  S
C1311      F1317   1.383       .  S
C1314      F1318   1.385       .  S
C1314      F1319   1.380       .  S
C1314      F1320   1.375       .  S
C1321      C1322   1.402       .  A
C1321      C1326   1.404       .  A
C1321      H1328   1.089       .  S
C1322      C1323   1.421       .  A
C1323      C1330   1.519       .  S
C1323      C1324   1.402       .  A
C1324      C1325   1.397       .  A
C1324      H1329   1.088       .  S
C1325      C1326   1.419       .  A
C1326      C1327   1.523       .  S
C1327      F1331   1.385       .  S
C1327      F1332   1.378       .  S
C1327      F1333   1.381       .  S
C1330      F1334   1.379       .  S
C1330      F1335   1.383       .  S
C1330      F1336   1.384       .  S
C1337      C1338   1.397       .  A
C1337      C1342   1.407   1_556  A
C1337      H1344   1.094       .  S
C1338      C1339   1.418   1_556  A
C1339      C1346   1.518   1_554  S
C1339      C1340   1.415       .  A
C1340      C1341   1.410       .  A
C1340      H1345   1.084       .  S
C1341      C1342   1.424       .  A
C1342      C1343   1.514       .  S
C1343      F1347   1.386       .  S
C1343      F1348   1.377       .  S
C1343      F1349   1.380       .  S
C1346      F1350   1.381       .  S
C1346      F1351   1.384       .  S
C1346      F1352   1.385   1_556  S
C1353      C1354   1.424       .  A
C1353      C1358   1.414       .  A
C1353      H1360   1.072       .  S
C1354      C1355   1.442       .  A
C1355      C1362   1.526       .  S
C1355      C1356   1.409       .  A
C1356      C1357   1.394       .  A
C1356      H1361   1.083       .  S
C1357      C1358   1.407       .  A
C1358      C1359   1.519       .  S
C1359      F1363   1.385       .  S
C1359      F1364   1.384       .  S
C1359      F1365   1.383       .  S
C1362      F1366   1.376       .  S
C1362      F1367   1.377       .  S
C1362      F1368   1.386       .  S
C1369      C1370   1.409       .  A
C1369      C1374   1.416       .  A
C1369      H1376   1.079       .  S
C1370      C1371   1.426       .  A
C1371      C1378   1.515       .  S
C1371      C1372   1.398       .  A
C1372      C1373   1.395       .  A
C1372      H1377   1.086       .  S
C1373      C1374   1.413       .  A
C1374      C1375   1.514       .  S
C1375      F1379   1.384       .  S
C1375      F1380   1.382       .  S
C1375      F1381   1.384       .  S
C1378      F1382   1.383       .  S
C1378      F1383   1.369       .  S
C1378      F1384   1.384       .  S
C1385      C1386   1.420       .  A
C1385      C1390   1.411       .  A
C1385      H1392   1.079       .  S
C1386      C1387   1.430       .  A
C1387      C1394   1.522       .  S
C1387      C1388   1.411       .  A
C1388      C1389   1.406       .  A
C1388      H1393   1.084       .  S
C1389      C1390   1.415       .  A
C1390      C1391   1.521       .  S
C1391      F1395   1.385       .  S
C1391      F1396   1.383       .  S
C1391      F1397   1.383       .  S
C1394      F1398   1.381       .  S
C1394      F1399   1.382       .  S
C1394      F1400   1.386       .  S
C1401      C1402   1.418       .  A
C1401      C1406   1.414   1_655  A
C1401      H1408   1.079       .  S
C1402      C1403   1.443       .  A
C1403      C1410   1.518       .  S
C1403      C1404   1.422   1_655  A
C1404      C1405   1.398       .  A
C1404      H1409   1.080       .  S
C1405      C1406   1.412       .  A
C1406      C1407   1.510       .  S
C1407      F1411   1.385       .  S
C1407      F1412   1.382       .  S
C1407      F1413   1.381       .  S
C1410      F1414   1.368       .  S
C1410      F1415   1.382       .  S
C1410      F1416   1.386       .  S
C1417      C1418   1.408       .  A
C1417      C1422   1.403       .  A
C1417      H1424   1.083       .  S
C1418      C1419   1.432       .  A
C1419      C1426   1.520       .  S
C1419      C1420   1.417       .  A
C1420      C1421   1.403       .  A
C1420      H1425   1.084       .  S
C1421      C1422   1.420       .  A
C1422      C1423   1.521       .  S
C1423      F1427   1.385       .  S
C1423      F1428   1.383       .  S
C1423      F1429   1.385       .  S
C1426      F1430   1.382       .  S
C1426      F1431   1.382       .  S
C1426      F1432   1.384       .  S
C1433      C1434   1.405       .  A
C1433      C1438   1.414       .  A
C1433      H1440   1.083       .  S
C1434      C1435   1.425       .  A
C1435      C1442   1.518       .  S
C1435      C1436   1.413       .  A
C1436      C1437   1.403       .  A
C1436      H1441   1.085       .  S
C1437      C1438   1.421       .  A
C1438      C1439   1.520       .  S
C1439      F1443   1.384       .  S
C1439      F1444   1.384       .  S
C1439      F1445   1.383       .  S
C1442      F1446   1.377       .  S
C1442      F1447   1.384       .  S
C1442      F1448   1.383       .  S
C1449      C1450   1.404       .  A
C1449      C1454   1.406       .  A
C1449      H1456   1.082       .  S
C1450      C1451   1.427       .  A
C1451      C1458   1.519       .  S
C1451      C1452   1.411       .  A
C1452      C1453   1.404       .  A
C1452      H1457   1.080       .  S
C1453      C1454   1.427       .  A
C1454      C1455   1.522       .  S
C1455      F1459   1.385       .  S
C1455      F1460   1.381       .  S
C1455      F1461   1.383       .  S
C1458      F1462   1.379       .  S
C1458      F1463   1.383       .  S
C1458      F1464   1.385       .  S
C1465      C1466   1.404       .  A
C1465      C1470   1.407       .  A
C1465      H1472   1.085       .  S
C1466      C1467   1.410       .  A
C1467      C1474   1.519       .  S
C1467      C1468   1.405       .  A
C1468      C1469   1.418       .  A
C1468      H1473   1.078       .  S
C1469      C1470   1.430       .  A
C1470      C1471   1.525       .  S
C1471      F1475   1.386       .  S
C1471      F1476   1.383       .  S
C1471      F1477   1.379       .  S
C1474      F1478   1.384       .  S
C1474      F1479   1.382       .  S
C1474      F1480   1.385       .  S
C1481      C1482   1.401       .  A
C1481      C1486   1.409       .  A
C1481      H1488   1.083       .  S
C1482      C1483   1.418       .  A
C1483      C1490   1.516       .  S
C1483      C1484   1.411       .  A
C1484      C1485   1.402       .  A
C1484      H1489   1.083       .  S
C1485      C1486   1.420       .  A
C1486      C1487   1.520       .  S
C1487      F1491   1.385       .  S
C1487      F1492   1.384       .  S
C1487      F1493   1.383       .  S
C1490      F1494   1.382       .  S
C1490      F1495   1.383       .  S
C1490      F1496   1.384       .  S
C1497      C1498   1.412       .  A
C1497      C1502   1.405       .  A
C1497      H1504   1.082       .  S
C1498      C1499   1.425       .  A
C1499      C1506   1.518       .  S
C1499      C1500   1.410       .  A
C1500      C1501   1.401       .  A
C1500      H1505   1.084       .  S
C1501      C1502   1.408       .  A
C1502      C1503   1.514       .  S
C1503      F1507   1.382       .  S
C1503      F1508   1.383       .  S
C1503      F1509   1.384       .  S
C1506      F1510   1.379       .  S
C1506      F1511   1.378       .  S
C1506      F1512   1.385       .  S
C1513      C1514   1.403       .  A
C1513      C1518   1.417   1_655  A
C1513      H1520   1.083       .  S
C1514      C1515   1.429   1_655  A
C1515      C1522   1.525   1_455  S
C1515      C1516   1.410       .  A
C1516      C1517   1.405       .  A
C1516      H1521   1.082       .  S
C1517      C1518   1.435       .  A
C1518      C1519   1.522       .  S
C1519      F1523   1.386       .  S
C1519      F1524   1.382       .  S
C1519      F1525   1.380       .  S
C1522      F1526   1.382       .  S
C1522      F1527   1.383       .  S
C1522      F1528   1.385   1_655  S
C1529      C1530   1.402       .  A
C1529      C1534   1.414       .  A
C1529      H1536   1.082       .  S
C1530      C1531   1.432       .  A
C1531      C1538   1.520       .  S
C1531      C1532   1.412       .  A
C1532      C1533   1.402       .  A
C1532      H1537   1.084       .  S
C1533      C1534   1.431       .  A
C1534      C1535   1.521       .  S
C1535      F1539   1.385       .  S
C1535      F1540   1.384       .  S
C1535      F1541   1.383       .  S
C1538      F1542   1.384       .  S
C1538      F1543   1.377       .  S
C1538      F1544   1.383       .  S
C1545      C1546   1.407       .  A
C1545      C1550   1.413       .  A
C1545      H1552   1.084       .  S
C1546      C1547   1.432       .  A
C1547      C1554   1.522       .  S
C1547      C1548   1.410       .  A
C1548      C1549   1.399       .  A
C1548      H1553   1.082       .  S
C1549      C1550   1.424       .  A
C1550      C1551   1.518       .  S
C1551      F1555   1.385       .  S
C1551      F1556   1.382       .  S
C1551      F1557   1.383       .  S
C1554      F1558   1.384       .  S
C1554      F1559   1.382       .  S
C1554      F1560   1.385       .  S
C1561      C1562   1.406       .  A
C1561      C1566   1.413       .  A
C1561      H1568   1.083       .  S
C1562      C1563   1.430       .  A
C1563      C1570   1.523       .  S
C1563      C1564   1.407       .  A
C1564      C1565   1.396       .  A
C1564      H1569   1.080       .  S
C1565      C1566   1.415       .  A
C1566      C1567   1.511       .  S
C1567      F1571   1.384       .  S
C1567      F1572   1.381       .  S
C1567      F1573   1.382       .  S
C1570      F1574   1.383       .  S
C1570      F1575   1.381       .  S
C1570      F1576   1.385       .  S
C1577      C1578   1.399       .  A
C1577      C1582   1.408       .  A
C1577      H1584   1.085       .  S
C1578      C1579   1.423       .  A
C1579      C1586   1.518       .  S
C1579      C1580   1.410       .  A
C1580      C1581   1.400       .  A
C1580      H1585   1.085       .  S
C1581      C1582   1.429       .  A
C1582      C1583   1.524       .  S
C1583      F1587   1.384       .  S
C1583      F1588   1.383       .  S
C1583      F1589   1.379       .  S
C1586      F1590   1.380       .  S
C1586      F1591   1.383       .  S
C1586      F1592   1.384       .  S
C1593      C1594   1.398       .  A
C1593      C1598   1.405       .  A
C1593      H1600   1.085       .  S
C1594      C1595   1.421       .  A
C1595      C1602   1.518       .  S
C1595      C1596   1.412       .  A
C1596      C1597   1.401       .  A
C1596      H1601   1.083       .  S
C1597      C1598   1.425       .  A
C1598      C1599   1.520       .  S
C1599      F1603   1.383       .  S
C1599      F1604   1.379       .  S
C1599      F1605   1.384       .  S
C1602      F1606   1.383       .  S
C1602      F1607   1.383       .  S
C1602      F1608   1.385       .  S
C1609      C1610   1.403       .  A
C1609      C1614   1.404       .  A
C1609      H1616   1.084       .  S
C1610      C1611   1.421       .  A
C1611      C1618   1.522       .  S
C1611      C1612   1.411       .  A
C1612      C1613   1.414       .  A
C1612      H1617   1.076       .  S
C1613      C1614   1.434       .  A
C1614      C1615   1.526       .  S
C1615      F1619   1.386       .  S
C1615      F1620   1.375       .  S
C1615      F1621   1.383       .  S
C1618      F1622   1.383       .  S
C1618      F1623   1.384       .  S
C1618      F1624   1.385       .  S
