geometry optimzed in LAMMPS
_audit_creation_date              2020-12-01 
_audit_creation_method            'lammps2cif' 
_symmetry_space_group_name_H-M    'P1' 
_symmetry_Int_Tables_number       1 
_symmetry_cell_setting            triclinic 
loop_ 
_symmetry_equiv_pos_as_xyz 
  x,y,z 
_cell_length_a                    48.55847709 
_cell_length_b                    48.699327495594495 
_cell_length_c                    48.81802440908787 
_cell_angle_alpha                 90.00427318033516 
_cell_angle_beta                  89.78042007567254 
_cell_angle_gamma                 89.90965222384376 
loop_ 
_atom_site_label 
_atom_site_type_symbol 
_atom_site_fract_x 
_atom_site_fract_y 
_atom_site_fract_z 
_atom_site_charge 
Fe1        Fe  0.18913079  0.58314540  0.52505549     1.65800
Fe2        Fe  0.12210980  0.58720025  0.54119691     1.73200
Fe3        Fe  0.16898517  0.61633377  0.58263675     1.54400
O4          O  0.19377092  0.58471900  0.59620371    -0.82000
O5          O  0.10765806  0.62421461  0.55748882    -0.80300
O6          O  0.21495328  0.57264342  0.55722455    -0.84500
O7          O  0.20545460  0.62150859  0.52193940    -0.79400
O8          O  0.13567572  0.59938163  0.60521954    -0.81200
O9          O  0.12454019  0.60602988  0.50423697    -0.83900
C10         C  0.21413491  0.63659446  0.54105182     0.96900
C11         C  0.21242620  0.57168670  0.58319465     1.04300
O12         O  0.16019502  0.59572266  0.54948267    -1.12900
O13         O  0.13056648  0.54912356  0.52317325    -0.75300
O14         O  0.17575312  0.54336046  0.52568791    -0.78800
O15         O  0.20398112  0.63574939  0.56521385    -0.79500
C16         C  0.15195485  0.53419357  0.52075252     0.95800
O17         O  0.16615229  0.59196581  0.49032410    -0.77500
O18         O  0.11803767  0.56763260  0.57760969    -0.82600
C19         C  0.11870228  0.64687073  0.56444649     0.98400
C20         C  0.12021406  0.57861588  0.60092519     1.04300
O21         O  0.14414135  0.64881851  0.57039227    -0.78300
C22         C  0.14255305  0.60246263  0.48581010     1.02600
Fe23       Fe  0.16398427  0.55024919  0.24421463     1.65800
Fe24       Fe  0.15318884  0.61765351  0.23542880     1.73200
Fe25       Fe  0.12808055  0.57246951  0.18836972     1.54400
O26         O  0.15840382  0.54630899  0.17353809    -0.82000
O27         O  0.11561753  0.63172710  0.22130338    -0.80300
O28         O  0.17626786  0.52729544  0.21090096    -0.84500
O29         O  0.12711986  0.53058284  0.24584937    -0.79400
O30         O  0.14799628  0.60488603  0.16796250    -0.81200
O31         O  0.13390811  0.60861749  0.27131020    -0.83900
C32         C  0.10835961  0.52618588  0.22847224     0.96900
C33         C  0.17386021  0.52877430  0.18511322     1.04300
O34         O  0.14831157  0.58002518  0.22236875    -1.12900
O35         O  0.19212044  0.61059477  0.25262021    -0.75300
O36         O  0.20249272  0.56713033  0.24423179    -0.78800
O37         O  0.10668054  0.53892801  0.20563039    -0.79500
C38         C  0.20929076  0.59082500  0.25225440     0.95800
O39         O  0.15394758  0.56890630  0.28112667    -0.77500
O40         O  0.17174902  0.62840043  0.19966613    -0.82600
C41         C  0.09479255  0.62186340  0.20925383     0.98400
C42         C  0.16520271  0.62341018  0.17504614     1.04300
O43         O  0.09504826  0.59807432  0.19850574    -0.78300
C44         C  0.13936022  0.58948538  0.28793235     1.02600
Fe45       Fe  0.24503930  0.14646067  0.57019513     1.65800
Fe46       Fe  0.23343969  0.13508036  0.63715333     1.73200
Fe47       Fe  0.19001310  0.10731823  0.58967493     1.54400
O48         O  0.17507403  0.13659048  0.56301954    -0.82000
O49         O  0.22048282  0.09681334  0.65030327    -0.80300
O50         O  0.21222744  0.15783694  0.54676997    -0.84500
O51         O  0.24883582  0.11033985  0.54995472    -0.79400
O52         O  0.16651899  0.12629324  0.62036116    -0.81200
O53         O  0.27170196  0.11882926  0.63055229    -0.83900
C54         C  0.23351457  0.08983066  0.54573956     0.96900
C55         C  0.18658242  0.15354347  0.54697331     1.04300
O56         O  0.22269014  0.12942061  0.59891569    -1.12900
O57         O  0.24915637  0.17446677  0.63110786    -0.75300
O58         O  0.24368894  0.18481365  0.58736877    -0.78800
O59         O  0.21032114  0.08643003  0.55766946    -0.79500
C60         C  0.25039793  0.19148522  0.61141166     0.95800
O61         O  0.28107598  0.13708227  0.58985930    -0.77500
O62         O  0.19571591  0.15153704  0.64553781    -0.82600
C63         C  0.20950872  0.07561911  0.63998877     0.98400
C64         C  0.17162397  0.14414732  0.63879326     1.04300
O65         O  0.20027234  0.07523699  0.61571017    -0.78300
C66         C  0.28844714  0.12464542  0.61148712     1.02600
Fe67       Fe  0.52941295  0.17696462  0.59635697     1.65800
Fe68       Fe  0.54483584  0.11010026  0.60240664     1.73200
Fe69       Fe  0.58692433  0.15767103  0.63094379     1.54400
O70         O  0.60030695  0.18441395  0.60100840    -0.82000
O71         O  0.55938404  0.09577207  0.63970442    -0.80300
O72         O  0.56111377  0.20366982  0.58712753    -0.84500
O73         O  0.52482361  0.19335009  0.63437492    -0.79400
O74         O  0.61072270  0.12663242  0.61150277    -0.81200
O75         O  0.50748315  0.11376999  0.62058665    -0.83900
C76         C  0.54265643  0.20049353  0.65174555     0.96900
C77         C  0.58722090  0.20251911  0.58760641     1.04300
O78         O  0.55384465  0.14833013  0.61005416    -1.12900
O79         O  0.52794545  0.11825325  0.56392541    -0.75300
O80         O  0.53179142  0.16298295  0.55679210    -0.78800
O81         O  0.56711124  0.19054626  0.65202785    -0.79500
C82         C  0.52643843  0.13905310  0.54823982     0.95800
O83         O  0.49420644  0.15425248  0.60395039    -0.77500
O84         O  0.58178551  0.10418885  0.58391548    -0.82600
C85         C  0.56813398  0.10655319  0.66169827     0.98400
C86         C  0.60582963  0.10951169  0.59220591     1.04300
O87         O  0.57652602  0.13125844  0.66285099    -0.78300
C88         C  0.48918942  0.13145462  0.61558460     1.02600
Fe89       Fe  0.59336344  0.50395895  0.18913563     1.65800
Fe90       Fe  0.59775307  0.51933444  0.12263207     1.73200
Fe91       Fe  0.62652166  0.56216797  0.16860914     1.54400
O92         O  0.59718395  0.57455900  0.19685943    -0.82000
O93         O  0.63260709  0.53767446  0.10621142    -0.80300
O94         O  0.58291761  0.53529511  0.21573924    -0.84500
O95         O  0.63193341  0.50136988  0.20505082    -0.79400
O96         O  0.60450736  0.58479067  0.13887512    -0.81200
O97         O  0.61935796  0.48360110  0.12599841    -0.83900
C98         C  0.65040474  0.51900406  0.20989356     0.96900
C99         C  0.58379743  0.56132027  0.21492131     1.04300
O100        O  0.60603068  0.52864288  0.16036923    -1.12900
O101        O  0.56110746  0.49902288  0.13148591    -0.75300
O102        O  0.55325655  0.50411081  0.17578613    -0.78800
O103        O  0.65015139  0.54316601  0.19962655    -0.79500
C104        C  0.54523778  0.49726722  0.15214634     0.95800
O105        O  0.60238165  0.46940251  0.16597960    -0.77500
O106        O  0.57606029  0.55475237  0.11884019    -0.82600
C107        C  0.65504561  0.54711765  0.11544719     0.98400
C108        C  0.58371518  0.57910897  0.12384990     1.04300
O109        O  0.65790936  0.55304419  0.14063802    -0.78300
C110        C  0.61510743  0.46491788  0.14359406     1.02600
Fe111      Fe  0.56860781  0.22634784  0.15242512     1.65800
Fe112      Fe  0.63634038  0.21574430  0.14236285     1.73200
Fe113      Fe  0.59075653  0.16822850  0.11950483     1.54400
O114        O  0.56576554  0.15526897  0.15106770    -0.82000
O115        O  0.64998742  0.19914045  0.10573080    -0.80300
O116        O  0.54682222  0.19340277  0.16791910    -0.84500
O117        O  0.54722378  0.22488664  0.11660179    -0.79400
O118        O  0.62382675  0.14838766  0.13943597    -0.81200
O119        O  0.62837462  0.25086802  0.12158130    -0.83900
C120        C  0.54250727  0.20614228  0.09931666     0.96900
C121        C  0.54907474  0.16742619  0.16702661     1.04300
O122        O  0.59836562  0.20336483  0.13790025    -1.12900
O123        O  0.63005726  0.23539292  0.17989646    -0.75300
O124        O  0.58609219  0.23016713  0.19045017    -0.78800
O125        O  0.55633444  0.18381132  0.09816502    -0.79500
C126        C  0.61028693  0.23709079  0.19689704     0.95800
O127        O  0.58723023  0.26223061  0.13861300    -0.77500
O128        O  0.64580480  0.18096055  0.16321932    -0.82600
C129        C  0.63936855  0.18734402  0.08518256     0.98400
C130        C  0.64114405  0.15602471  0.15757881     1.04300
O131        O  0.61528390  0.17727797  0.08579569    -0.78300
C132        C  0.60911954  0.26798379  0.12534415     1.02600
Fe133      Fe  0.69876723  0.89694932  0.48561975     1.65800
Fe134      Fe  0.63088898  0.88988569  0.47520828     1.73200
Fe135      Fe  0.67537512  0.85812708  0.43195105     1.54400
O136        O  0.70226451  0.88654226  0.41537194    -0.82000
O137        O  0.61463783  0.85275392  0.46229710    -0.80300
O138        O  0.72170733  0.90687230  0.45143215    -0.84500
O139        O  0.71772532  0.85974950  0.48895797    -0.79400
O140        O  0.64346068  0.87712782  0.40978556    -0.81200
O141        O  0.63754573  0.87213568  0.51206940    -0.83900
C142        C  0.72159372  0.83976230  0.47286882     0.96900
C143        C  0.71951477  0.90308086  0.42579922     1.04300
O144        O  0.66856122  0.88154362  0.46409170    -1.12900
O145        O  0.63945099  0.92876354  0.49119866    -0.75300
O146        O  0.68372618  0.93647980  0.48487065    -0.78800
O147        O  0.70845726  0.83685199  0.45041793    -0.79500
C148        C  0.66000643  0.94482185  0.49169534     0.95800
O149        O  0.67894788  0.88860805  0.52243277    -0.77500
O150        O  0.62311851  0.90724693  0.43818039    -0.82600
C151        C  0.62377789  0.82993106  0.45364157     0.98400
C152        C  0.62663668  0.89678446  0.41464570     1.04300
O153        O  0.64838032  0.82726042  0.44491418    -0.78300
C154        C  0.65679692  0.87626435  0.52896305     1.02600
Fe155      Fe  0.65778889  0.92840568  0.76783304     1.65800
Fe156      Fe  0.64955961  0.86117696  0.77969571     1.73200
Fe157      Fe  0.62383024  0.90738289  0.82525663     1.54400
O158        O  0.65487808  0.93311272  0.83858766    -0.82000
O159        O  0.61228019  0.84709737  0.79484688    -0.80300
O160        O  0.66883944  0.95337009  0.80015761    -0.84500
O161        O  0.61994380  0.94604562  0.76541716    -0.79400
O162        O  0.64375824  0.87514389  0.84650467    -0.81200
O163        O  0.63012302  0.86777318  0.74368644    -0.83900
C164        C  0.60264210  0.95235312  0.78380883     0.96900
C165        C  0.66862610  0.95141167  0.82605608     1.04300
O166        O  0.64356167  0.89906403  0.79112783    -1.12900
O167        O  0.68817207  0.86889244  0.76210975    -0.75300
O168        O  0.69706253  0.91307915  0.76839428    -0.78800
O169        O  0.60247365  0.94123078  0.80761995    -0.79500
C170        C  0.70473887  0.88912309  0.76184449     0.95800
O171        O  0.64905812  0.90759572  0.73189882    -0.77500
O172        O  0.66889526  0.85244825  0.81529332    -0.82600
C173        C  0.59107754  0.85744835  0.80608217     0.98400
C174        C  0.66202757  0.85734490  0.83982908     1.04300
O175        O  0.59080710  0.88172963  0.81574747    -0.78300
C176        C  0.63615818  0.88571496  0.72603781     1.02600
Fe177      Fe  0.27210675  0.83231548  0.08020614     1.65800
Fe178      Fe  0.29321902  0.83679996  0.14537898     1.73200
Fe179      Fe  0.33078485  0.86665909  0.09496989     1.54400
O180        O  0.34236297  0.83615066  0.06792981    -0.82000
O181        O  0.30958095  0.87394926  0.15876247    -0.80300
O182        O  0.30194760  0.82256620  0.05125501    -0.84500
O183        O  0.26645694  0.87048510  0.06410193    -0.79400
O184        O  0.35686537  0.84806516  0.12445811    -0.81200
O185        O  0.25569151  0.85483093  0.14636427    -0.83900
C186        C  0.28410877  0.88709017  0.05472677     0.96900
C187        C  0.32813189  0.82268626  0.05075149     1.04300
O188        O  0.29856255  0.84561381  0.10677190    -1.12900
O189        O  0.27500757  0.79864746  0.13843688    -0.75300
O190        O  0.27527670  0.79266203  0.09351448    -0.78800
O191        O  0.30913884  0.88712714  0.06297543    -0.79500
C192        C  0.27143043  0.78363289  0.11747666     0.95800
O193        O  0.23912991  0.84019852  0.10627440    -0.77500
O194        O  0.33020214  0.81773420  0.14620423    -0.82600
C195        C  0.31600345  0.89660258  0.14744393     0.98400
C196        C  0.35360871  0.82721081  0.14007084     1.04300
O197        O  0.32142340  0.89848967  0.12195357    -0.78300
C198        C  0.23606238  0.85048517  0.13007787     1.02600
Fe199      Fe  0.99518339  0.80175637  0.10112639     1.65800
Fe200      Fe  0.98546975  0.86977028  0.11163188     1.73200
Fe201      Fe  0.93806322  0.82384297  0.13622396     1.54400
O202        O  0.92427124  0.79725935  0.10603043    -0.82000
O203        O  0.97136931  0.88299273  0.14934108    -0.80300
O204        O  0.96194287  0.78075689  0.08581100    -0.84500
O205        O  0.99424785  0.78026371  0.13673159    -0.79400
O206        O  0.91723907  0.85593805  0.11589938    -0.81200
O207        O  0.02241728  0.86149010  0.12954027    -0.83900
C208        C  0.97762287  0.77710130  0.15640776     0.96900
C209        C  0.93600220  0.78165238  0.08868087     1.04300
O210        O  0.97274683  0.83172393  0.11639552    -1.12900
O211        O  0.00218921  0.86370879  0.07280005    -0.75300
O212        O  0.99930212  0.81938842  0.06331978    -0.78800
O213        O  0.95528751  0.79086416  0.15874020    -0.79500
C214        C  0.00473365  0.84371933  0.05628687     0.95800
O215        O  0.03123620  0.81908190  0.11478430    -0.77500
O216        O  0.94930773  0.88070566  0.09378572    -0.82600
C217        C  0.95803835  0.87342661  0.16955205     0.98400
C218        C  0.92447681  0.87524071  0.09962698     1.04300
O219        O  0.94701806  0.84979966  0.16891196    -0.78300
C220        C  0.03831126  0.84105307  0.12688198     1.02600
Fe221      Fe  0.41577617  0.00430923  0.32154147     1.65800
Fe222      Fe  0.41129291  0.02001068  0.38843504     1.73200
Fe223      Fe  0.38298233  0.06273637  0.34121821     1.54400
O224        O  0.41339028  0.07520997  0.31478421    -0.82000
O225        O  0.37421519  0.03579265  0.40279659    -0.80300
O226        O  0.42745004  0.03604620  0.29570972    -0.84500
O227        O  0.37769335  0.00191142  0.30503843    -0.79400
O228        O  0.40302055  0.08564352  0.37210809    -0.81200
O229        O  0.39204447  0.98330451  0.38546463    -0.83900
C230        C  0.36039488  0.02010011  0.29857723     0.96900
C231        C  0.42768780  0.06211516  0.29735577     1.04300
O232        O  0.40324606  0.02905962  0.35032150    -1.12900
O233        O  0.44941723  0.00173713  0.38013703    -0.75300
O234        O  0.45532400  0.00394482  0.33512085    -0.78800
O235        O  0.36090025  0.04437429  0.30855132    -0.79500
C236        C  0.46417374  0.99860517  0.35878728     0.95800
O237        O  0.40568669  0.96955334  0.34402193    -0.77500
O238        O  0.43095386  0.05629444  0.39366319    -0.82600
C239        C  0.35212157  0.04459162  0.39198662     0.98400
C240        C  0.42275113  0.08040570  0.38860361     1.04300
O241        O  0.35093818  0.05289413  0.36737397    -0.78300
C242        C  0.39471380  0.96506879  0.36731431     1.02600
Fe243      Fe  0.44059195  0.72351407  0.35069128     1.65800
Fe244      Fe  0.37321570  0.71029035  0.35707162     1.73200
Fe245      Fe  0.41919167  0.67025345  0.39055875     1.54400
O246        O  0.44709485  0.65390867  0.36300348    -0.82000
O247        O  0.35683382  0.69635026  0.39379253    -0.80300
O248        O  0.46601219  0.69051011  0.34297711    -0.84500
O249        O  0.45810373  0.72996314  0.38791233    -0.79400
O250        O  0.38858606  0.64573984  0.37149377    -0.81200
O251        O  0.37700123  0.74846015  0.37372543    -0.83900
C252        C  0.46293753  0.71467862  0.40826041     0.96900
C253        C  0.46483999  0.66485838  0.34728564     1.04300
O254        O  0.41120940  0.70130701  0.36637614    -1.12900
O255        O  0.38208151  0.72619913  0.31843488    -0.75300
O256        O  0.42645965  0.71959830  0.31127959    -0.78800
O257        O  0.45133010  0.69126541  0.41150606    -0.79500
C258        C  0.40293960  0.72641983  0.30267730     0.95800
O259        O  0.41835868  0.75912095  0.35687070    -0.77500
O260        O  0.36851839  0.67260675  0.34006717    -0.82600
C261        C  0.36604461  0.68921201  0.41702103     0.98400
C262        C  0.37289273  0.64927379  0.35070315     1.04300
O263        O  0.39132532  0.68334585  0.42050570    -0.78300
C264        C  0.39562029  0.76580003  0.36816207     1.02600
Fe265      Fe  0.48884938  0.67581193  0.90960039     1.65800
Fe266      Fe  0.47610116  0.60869870  0.90087868     1.73200
Fe267      Fe  0.43206298  0.65567431  0.87411954     1.54400
O268        O  0.41772954  0.68120982  0.90477729    -0.82000
O269        O  0.46213995  0.59504900  0.86319768    -0.80300
O270        O  0.45600815  0.70080620  0.92026974    -0.84500
O271        O  0.49250592  0.69408451  0.87208283    -0.79400
O272        O  0.40951995  0.62368871  0.89291664    -0.81200
O273        O  0.51314280  0.61469372  0.88274398    -0.83900
C274        C  0.47464945  0.70032024  0.85428252     0.96900
C275        C  0.42994573  0.69908374  0.91920650     1.04300
O276        O  0.46553316  0.64682925  0.89471533    -1.12900
O277        O  0.49250797  0.61587550  0.93972457    -0.75300
O278        O  0.48720041  0.66019502  0.94854406    -0.78800
O279        O  0.45072720  0.68931075  0.85358931    -0.79500
C280        C  0.49306181  0.63610406  0.95621976     0.95800
O281        O  0.52508859  0.65449143  0.90147357    -0.77500
O282        O  0.43943607  0.60065918  0.91907464    -0.82600
C283        C  0.45224832  0.60594188  0.84176610     0.98400
C284        C  0.41515224  0.60596174  0.91141073     1.04300
O285        O  0.44288159  0.63033975  0.84144822    -0.78300
C286        C  0.53102397  0.63246126  0.88875899     1.02600
Fe287      Fe  0.76790204  0.64620130  0.94098806     1.65800
Fe288      Fe  0.78139114  0.63655930  0.87431466     1.73200
Fe289      Fe  0.82590341  0.61173705  0.92126417     1.54400
O290        O  0.83881491  0.64244560  0.94726970    -0.82000
O291        O  0.79971750  0.60095457  0.85998681    -0.80300
O292        O  0.80026493  0.66054830  0.96455358    -0.84500
O293        O  0.76707925  0.61022459  0.96198922    -0.79400
O294        O  0.84753391  0.63246492  0.88943720    -0.81200
O295        O  0.74654781  0.61481467  0.88038571    -0.83900
C296        C  0.78482319  0.59200679  0.96728272     0.96900
C297        C  0.82637169  0.65873099  0.96343438     1.04300
O298        O  0.79183812  0.63127005  0.91250605    -1.12900
O299        O  0.76047850  0.67348012  0.88034985    -0.75300
O300        O  0.76658864  0.68454535  0.92362293    -0.78800
O301        O  0.80787170  0.59011535  0.95455636    -0.79500
C302        C  0.75965007  0.69095891  0.89956448     0.95800
O303        O  0.73276372  0.63292992  0.92026821    -0.77500
O304        O  0.81613857  0.65821165  0.86774798    -0.82600
C305        C  0.80926172  0.57942391  0.87094198     0.98400
C306        C  0.84086470  0.65205360  0.87313680     1.04300
O307        O  0.81643499  0.57870441  0.89590889    -0.78300
C308        C  0.72842995  0.61886171  0.89861512     1.02600
Fe309      Fe  0.31977521  0.39281513  0.01449841     1.65800
Fe310      Fe  0.38614896  0.38835259  0.03218389     1.73200
Fe311      Fe  0.33840850  0.35718914  0.07170706     1.54400
O312        O  0.31055563  0.38657040  0.08495611    -0.82000
O313        O  0.40152906  0.35269901  0.04938227    -0.80300
O314        O  0.29365586  0.40440756  0.04628961    -0.84500
O315        O  0.30169238  0.35528160  0.01088976    -0.79400
O316        O  0.36837986  0.37719992  0.09609032    -0.81200
O317        O  0.38474306  0.36852963  0.99564659    -0.83900
C318        C  0.29539772  0.33695824  0.02808824     0.96900
C319        C  0.29430763  0.40266334  0.07231553     1.04300
O320        O  0.34782502  0.37920880  0.03940761    -1.12900
O321        O  0.37875520  0.42579393  0.01297864    -0.75300
O322        O  0.33391734  0.43237251  0.01498686    -0.78800
O323        O  0.30638868  0.33546375  0.05180483    -0.79500
C324        C  0.35788218  0.44117980  0.01032196     0.95800
O325        O  0.34380387  0.38281565  0.98040274    -0.77500
O326        O  0.38799869  0.40835910  0.06862637    -0.82600
C327        C  0.39194002  0.32950545  0.05632179     0.98400
C328        C  0.38284855  0.39884356  0.09225334     1.04300
O329        O  0.36633212  0.32611150  0.06096143    -0.78300
C330        C  0.36718339  0.37131996  0.97670216     1.02600
Fe331      Fe  0.35851915  0.42588252  0.74350773     1.65800
Fe332      Fe  0.36436523  0.35876842  0.72951179     1.73200
Fe333      Fe  0.38873855  0.40521528  0.68394555     1.54400
O334        O  0.35661389  0.43038901  0.67247444    -0.82000
O335        O  0.39987650  0.34419891  0.71055150    -0.80300
O336        O  0.34366474  0.45008015  0.71179465    -0.84500
O337        O  0.39598309  0.44434385  0.74276639    -0.79400
O338        O  0.36849812  0.37272807  0.66359004    -0.81200
O339        O  0.38687106  0.36360977  0.76416584    -0.83900
C340        C  0.41173664  0.45088601  0.72321239     0.96900
C341        C  0.34216639  0.44754571  0.68589783     1.04300
O342        O  0.37073705  0.39679831  0.71896332    -1.12900
O343        O  0.32778990  0.36629177  0.75104701    -0.75300
O344        O  0.31952650  0.41071577  0.74703200    -0.78800
O345        O  0.41053526  0.43948101  0.69965037    -0.79500
C346        C  0.31217768  0.38701079  0.75433054     0.95800
O347        O  0.37162898  0.40454320  0.77801260    -0.77500
O348        O  0.34170494  0.35276382  0.69514825    -0.82600
C349        C  0.42133517  0.35490951  0.70017395     0.98400
C350        C  0.34868357  0.35685217  0.67046306     1.04300
O351        O  0.42217346  0.37989033  0.69256556    -0.78300
C352        C  0.38424670  0.38199525  0.78232549     1.02600
Fe353      Fe  0.06649271  0.25776336  0.83876817     1.65800
Fe354      Fe  0.13423686  0.27056383  0.84322805     1.73200
Fe355      Fe  0.08932885  0.31176597  0.87708780     1.54400
O356        O  0.06141046  0.32817525  0.84933531    -0.82000
O357        O  0.15115285  0.28509608  0.87949542    -0.80300
O358        O  0.04339913  0.29170565  0.82802877    -0.84500
O359        O  0.04798144  0.25453193  0.87573920    -0.79400
O360        O  0.12086703  0.33486815  0.85793134    -0.81200
O361        O  0.13019118  0.23284337  0.86082688    -0.83900
C362        C  0.04482067  0.26957206  0.89650870     0.96900
C363        C  0.04493146  0.31743103  0.83217241     1.04300
O364        O  0.09643404  0.28003931  0.85316487    -1.12900
O365        O  0.12542092  0.25392614  0.80505459    -0.75300
O366        O  0.08051112  0.25769570  0.79935936    -0.78800
O367        O  0.05729019  0.29244364  0.89937595    -0.79500
C368        C  0.10412986  0.25202884  0.79028495     0.95800
O369        O  0.08742463  0.22184789  0.84842879    -0.77500
O370        O  0.13885777  0.30789463  0.82528737    -0.82600
C371        C  0.14217514  0.29222082  0.90290492     0.98400
C372        C  0.13633292  0.33098541  0.83697400     1.04300
O373        O  0.11697493  0.29826303  0.90681616    -0.78300
C374        C  0.11070153  0.21567620  0.85890266     1.02600
Fe375      Fe  0.10359697  0.97103448  0.82014995     1.65800
Fe376      Fe  0.11338240  0.96093137  0.88724710     1.73200
Fe377      Fe  0.14173810  0.91611424  0.84160246     1.54400
O378        O  0.11236937  0.90068766  0.81496445    -0.82000
O379        O  0.15069906  0.94675914  0.90206038    -0.80300
O380        O  0.09246952  0.93748921  0.79679672    -0.84500
O381        O  0.14024164  0.97426262  0.80024704    -0.79400
O382        O  0.12181221  0.89402082  0.87319093    -0.81200
O383        O  0.13173434  0.99771842  0.88013279    -0.83900
C384        C  0.16004839  0.95794207  0.79574607     0.96900
C385        C  0.09570066  0.91166706  0.79823469     1.04300
O386        O  0.11993138  0.94924079  0.84949243    -1.12900
O387        O  0.07450393  0.97799752  0.88004814    -0.75300
O388        O  0.06487819  0.96948290  0.83673609    -0.78800
O389        O  0.16308980  0.93523704  0.80869520    -0.79500
C390        C  0.05757555  0.97736733  0.86029388     0.95800
O391        O  0.11253769  0.00782318  0.84002521    -0.77500
O392        O  0.09504377  0.92446633  0.89540562    -0.82600
C393        C  0.17248463  0.93607198  0.89241903     0.98400
C394        C  0.10260723  0.90008008  0.89021779     1.04300
O395        O  0.17375404  0.92680466  0.86807091    -0.78300
C396        C  0.12530310  0.01478496  0.86173734     1.02600
Fe397      Fe  0.94051081  0.75167620  0.65944591     1.65800
Fe398      Fe  0.87379814  0.76863845  0.65458068     1.73200
Fe399      Fe  0.92198636  0.81184163  0.62973129     1.54400
O400        O  0.94668055  0.82277484  0.66226335    -0.82000
O401        O  0.86046557  0.78639234  0.61815977    -0.80300
O402        O  0.96696571  0.78282412  0.67211119    -0.84500
O403        O  0.95720618  0.75061646  0.62113363    -0.79400
O404        O  0.88924952  0.83389807  0.64829544    -0.81200
O405        O  0.87704824  0.73306923  0.63349413    -0.83900
C406        C  0.96617683  0.77040312  0.60700805     0.96900
C407        C  0.96473838  0.80876136  0.67492053     1.04300
O408        O  0.91219404  0.77740818  0.64787534    -1.12900
O409        O  0.88116445  0.74874692  0.69171861    -0.75300
O410        O  0.92622214  0.75015823  0.69892242    -0.78800
O411        O  0.95663858  0.79477232  0.60932062    -0.79500
C412        C  0.90197174  0.74548310  0.70715882     0.95800
O413        O  0.91737105  0.71746462  0.64845129    -0.77500
O414        O  0.86857078  0.80391063  0.67604680    -0.82600
C415        C  0.87225307  0.79514057  0.59654137     0.98400
C416        C  0.87258680  0.82815331  0.66779745     1.04300
O417        O  0.89734711  0.80271700  0.59617408    -0.78300
C418        C  0.89448163  0.71404131  0.63628468     1.02600
Fe419      Fe  0.89933010  0.48064375  0.68850459     1.65800
Fe420      Fe  0.89458315  0.46537168  0.62187568     1.73200
Fe421      Fe  0.86913118  0.42101843  0.66894827     1.54400
O422        O  0.90078830  0.40975770  0.69477028    -0.82000
O423        O  0.85841144  0.44764982  0.60760761    -0.80300
O424        O  0.91110178  0.44936388  0.71498541    -0.84500
O425        O  0.86085429  0.48202988  0.70470994    -0.79400
O426        O  0.88966278  0.39930774  0.63729716    -0.81200
O427        O  0.87316047  0.50087501  0.62563909    -0.83900
C428        C  0.84571733  0.46257460  0.71281693     0.96900
C429        C  0.91284157  0.42333293  0.71341528     1.04300
O430        O  0.88751638  0.45559306  0.65985867    -1.12900
O431        O  0.93186180  0.48532686  0.62997444    -0.75300
O432        O  0.93909988  0.48164269  0.67459491    -0.78800
O433        O  0.84724930  0.43840124  0.70257446    -0.79500
C434        C  0.94744529  0.48761074  0.65078107     0.95800
O435        O  0.88904060  0.51522152  0.66586350    -0.77500
O436        O  0.91628545  0.43033955  0.61636897    -0.82600
C437        C  0.83679127  0.43760261  0.61840791     0.98400
C438        C  0.90947912  0.40577549  0.62121260     1.04300
O439        O  0.83604208  0.42944038  0.64318195    -0.78300
C440        C  0.87657618  0.51940756  0.64336955     1.02600
Fe441      Fe  0.02236859  0.30422992  0.41546447     1.65800
Fe442      Fe  0.03480938  0.37095187  0.40395349     1.73200
Fe443      Fe  0.08000962  0.32326266  0.37980034     1.54400
O444        O  0.09347243  0.29795064  0.41074549    -0.82000
O445        O  0.05036081  0.38348563  0.36665751    -0.80300
O446        O  0.05489485  0.28085566  0.42876835    -0.84500
O447        O  0.02101416  0.28344887  0.37944534    -0.79400
O448        O  0.10175892  0.35539661  0.39879975    -0.81200
O449        O  0.99859615  0.36359569  0.38463176    -0.83900
C450        C  0.03847954  0.27787200  0.36098567     0.96900
C451        C  0.08088019  0.28140146  0.42641817     1.04300
O452        O  0.04595136  0.33265393  0.39968447    -1.12900
O453        O  0.01626933  0.36561516  0.44212909    -0.75300
O454        O  0.02119204  0.32194143  0.45349102    -0.78800
O455        O  0.06194244  0.28963017  0.35925187    -0.79500
C456        C  0.01431369  0.34624191  0.45944118     0.95800
O457        O  0.98655991  0.32408016  0.40389972    -0.77500
O458        O  0.07088585  0.37986565  0.42295039    -0.82600
C459        C  0.06102758  0.37215665  0.34582186     0.98400
C460        C  0.09544494  0.37392485  0.41631596     1.04300
O461        O  0.07052858  0.34786898  0.34636999    -0.78300
C462        C  0.98095403  0.34516908  0.38966761     1.02600
Fe463      Fe  0.74251258  0.34044239  0.43538270     1.65800
Fe464      Fe  0.72903877  0.34419086  0.36831147     1.73200
Fe465      Fe  0.68430645  0.37248052  0.41341316     1.54400
O466        O  0.67078375  0.34228700  0.43965257    -0.82000
O467        O  0.71259594  0.38026253  0.35269246    -0.80300
O468        O  0.70968701  0.32994973  0.46050555    -0.84500
O469        O  0.74408918  0.37909258  0.45127543    -0.79400
O470        O  0.66304101  0.35285004  0.38094684    -0.81200
O471        O  0.76536746  0.36433005  0.37235291    -0.83900
C472        C  0.72469036  0.39490352  0.45839216     0.96900
C473        C  0.68354582  0.32973112  0.45856577     1.04300
O474        O  0.71854547  0.35241984  0.40585123    -1.12900
O475        O  0.74798670  0.30706346  0.37766465    -0.75300
O476        O  0.74401713  0.30029185  0.42224031    -0.78800
O477        O  0.70084267  0.39394862  0.44740456    -0.79500
C478        C  0.75125919  0.29207292  0.39866580     0.95800
O479        O  0.77804007  0.34963816  0.41367024    -0.77500
O480        O  0.69329388  0.32352966  0.36255586    -0.82600
C481        C  0.70345288  0.40254235  0.36277996     0.98400
C482        C  0.66905997  0.33271538  0.36513912     1.04300
O483        O  0.69531874  0.40445454  0.38750584    -0.78300
C484        C  0.78331592  0.36086558  0.39072876     1.02600
Fe485      Fe  0.85166545  0.06123706  0.26524503     1.65800
Fe486      Fe  0.85903690  0.12723090  0.28410725     1.73200
Fe487      Fe  0.88445255  0.07655439  0.32462992     1.54400
O488        O  0.85231889  0.05126720  0.33546509    -0.82000
O489        O  0.89680333  0.13886142  0.30032388    -0.80300
O490        O  0.83962209  0.03376300  0.29525128    -0.84500
O491        O  0.88942146  0.04331379  0.26195284    -0.79400
O492        O  0.86624827  0.10745890  0.34900854    -0.81200
O493        O  0.87768270  0.12535657  0.24671615    -0.83900
C494        C  0.90524461  0.03416971  0.28035684     0.96900
C495        C  0.83864515  0.03430631  0.32123711     1.04300
O496        O  0.86524651  0.08830585  0.29130457    -1.12900
O497        O  0.82063770  0.12143973  0.26596344    -0.75300
O498        O  0.81239812  0.07663701  0.26585612    -0.78800
O499        O  0.90467669  0.04338074  0.30487916    -0.79500
C500        C  0.80472120  0.10112716  0.26184655     0.95800
O501        O  0.86174072  0.08519112  0.23174938    -0.77500
O502        O  0.83965285  0.13184136  0.32083074    -0.82600
C503        C  0.91812545  0.12670711  0.30937426     0.98400
C504        C  0.84763497  0.12545938  0.34463121     1.04300
O505        O  0.91802959  0.10159185  0.31653175    -0.78300
C506        C  0.87331375  0.10823496  0.22776865     1.02600
Fe507      Fe  0.82121094  0.08270689  0.98856219     1.65800
Fe508      Fe  0.88900180  0.09138292  0.97808760     1.73200
Fe509      Fe  0.84367825  0.11764607  0.93216410     1.54400
O510        O  0.81813299  0.08701553  0.91746558    -0.82000
O511        O  0.90339700  0.12850324  0.96333413    -0.80300
O512        O  0.79786299  0.07098716  0.95529121    -0.84500
O513        O  0.80237114  0.11993946  0.99015798    -0.79400
O514        O  0.87659888  0.09835050  0.91139883    -0.81200
O515        O  0.88107572  0.11078718  0.01417275    -0.83900
C516        C  0.79746496  0.13818824  0.97241343     0.96900
C517        C  0.79991762  0.07259592  0.92941426     1.04300
O518        O  0.85117484  0.09721753  0.96602208    -1.12900
O519        O  0.88144947  0.05303233  0.99557588    -0.75300
O520        O  0.83720517  0.04376977  0.98941905    -0.78800
O521        O  0.80956547  0.13893934  0.94911116    -0.79500
C522        C  0.86116907  0.03660235  0.99653594     0.95800
O523        O  0.84045243  0.09290413  0.02500278    -0.77500
O524        O  0.89869069  0.07236691  0.94225450    -0.82600
C525        C  0.89302153  0.15008442  0.95312652     0.98400
C526        C  0.89445291  0.08014789  0.91786779     1.04300
O527        O  0.86880578  0.15046907  0.94328583    -0.78300
C528        C  0.86173944  0.10669376  0.03112488     1.02600
C529        C  0.84846079  0.12648693  0.10528072    -0.11700
C530        C  0.87552411  0.13046021  0.11422147     0.14800
C531        C  0.89734020  0.13018498  0.09525711     0.01700
C532        C  0.89196721  0.12357790  0.06807374    -0.16100
C533        C  0.86512091  0.11724803  0.05928932    -0.10900
C534        C  0.84286438  0.11999857  0.07797608     0.08400
C535        C  0.88058055  0.12825322  0.14371270     0.09500
S536        S  0.93261516  0.13626161  0.10497070    -0.25200
H537        H  0.90923108  0.12216590  0.05401866     0.19700
S538        S  0.80740176  0.11454392  0.06806090    -0.30900
H539        H  0.83190328  0.12662497  0.12021394     0.10000
C540        C  0.87068507  0.14797956  0.16232923     0.03200
C541        C  0.87077738  0.14185417  0.19031294    -0.13200
C542        C  0.87989525  0.11612026  0.19961009    -0.08900
C543        C  0.89145155  0.09717482  0.18105119     0.06700
C544        C  0.89181906  0.10354451  0.15322410    -0.14000
S545        S  0.85679268  0.18019220  0.15028138    -0.30900
H546        H  0.86196021  0.15630087  0.20476857     0.10900
S547        S  0.90499494  0.06460451  0.19255566    -0.28000
H548        H  0.89934225  0.08857705  0.13857514     0.08200
H549        H  0.79512217  0.12290478  0.09284673     0.26600
H550        H  0.84943715  0.19068960  0.17614456     0.21400
H551        H  0.91312661  0.05465525  0.16670692     0.26700
H552        H  0.92646849  0.15207364  0.12832339     0.15600
C553        C  0.79417772  0.23187693  0.37157760    -0.11700
C554        C  0.79221755  0.21314578  0.39323262     0.14800
C555        C  0.77663655  0.22021650  0.41663048     0.01700
C556        C  0.76289817  0.24561263  0.41751672    -0.16100
C557        C  0.76489674  0.26467233  0.39581625    -0.10900
C558        C  0.78131467  0.25753135  0.37271114     0.08400
C559        C  0.80604284  0.18621904  0.38958514     0.09500
S560        S  0.77352288  0.19786357  0.44592663    -0.25200
H561        H  0.75083896  0.25062119  0.43555783     0.19700
S562        S  0.78823512  0.28035936  0.34444518    -0.30900
H563        H  0.80630752  0.22654757  0.35364507     0.10000
C564        C  0.79138303  0.16335699  0.37972317     0.03200
C565        C  0.80593469  0.14101210  0.36865550    -0.13200
C566        C  0.83484739  0.14112551  0.36721755    -0.08900
C567        C  0.84942364  0.16259430  0.38008308     0.06700
C568        C  0.83489679  0.18506682  0.39082135    -0.14000
S569        S  0.75424746  0.16413020  0.37798362    -0.30900
H570        H  0.79476629  0.12472178  0.35848263     0.10900
S571        S  0.88647951  0.16441933  0.37961050    -0.28000
H572        H  0.84621049  0.20262913  0.39844077     0.08200
H573        H  0.79729751  0.30181353  0.36149238     0.26600
H574        H  0.75085294  0.13690284  0.36898841     0.21400
H575        H  0.89042149  0.13616202  0.38394702     0.26700
H576        H  0.79845996  0.18370651  0.44197479     0.15600
C577        C  0.99081883  0.23335167  0.32107570    -0.11700
C578        C  0.00292659  0.20748910  0.32504635     0.14800
C579        C  0.03034416  0.20614958  0.33477173     0.01700
C580        C  0.04356113  0.23034843  0.34336391    -0.16100
C581        C  0.03018281  0.25590854  0.34186759    -0.10900
C582        C  0.00419836  0.25742900  0.32906254     0.08400
C583        C  0.98525764  0.18287879  0.32060948     0.09500
S584        S  0.04897450  0.17424710  0.33799392    -0.25200
H585        H  0.06352951  0.22892543  0.35308845     0.19700
S586        S  0.98611945  0.28950768  0.32447005    -0.30900
H587        H  0.97011617  0.23473010  0.31295446     0.10000
C588        C  0.97569530  0.16659600  0.34269124     0.03200
C589        C  0.95525148  0.14665062  0.33807824    -0.13200
C590        C  0.94364601  0.14311452  0.31202651    -0.08900
C591        C  0.95416546  0.15852232  0.28980773     0.06700
C592        C  0.97466525  0.17818563  0.29432822    -0.14000
S593        S  0.98726697  0.17304274  0.37723259    -0.30900
H594        H  0.94687320  0.13514173  0.35515240     0.10900
S595        S  0.94170000  0.15452790  0.25529049    -0.28000
H596        H  0.98181065  0.19062167  0.27732497     0.08200
H597        H  0.00964957  0.30631305  0.32520553     0.26600
H598        H  0.97344896  0.15090132  0.38963813     0.21400
H599        H  0.93512179  0.12652451  0.25789166     0.26700
H600        H  0.03362483  0.15960171  0.31851408     0.15600
C601        C  0.85829204  0.37882269  0.39785616    -0.11700
C602        C  0.86809297  0.36969124  0.37242705     0.14800
C603        C  0.84959746  0.36180766  0.35183302     0.01700
C604        C  0.82156484  0.36126560  0.35779076    -0.16100
C605        C  0.81185538  0.36786996  0.38412537    -0.10900
C606        C  0.83025690  0.37776991  0.40408103     0.08400
C607        C  0.89732484  0.36292560  0.37065351     0.09500
S608        S  0.86076402  0.34995306  0.31859396    -0.25200
H609        H  0.80748618  0.35373315  0.34234459     0.19700
S610        S  0.81858143  0.38779263  0.43781559    -0.30900
H611        H  0.87290025  0.38468667  0.41351503     0.10000
C612        C  0.91734656  0.38341284  0.36819162     0.03200
C613        C  0.94483007  0.37658363  0.37277715    -0.13200
C614        C  0.95251571  0.34964145  0.38011089    -0.08900
C615        C  0.93235835  0.32861618  0.38022499     0.06700
C616        C  0.90491460  0.33567631  0.37558999    -0.14000
S617        S  0.90765354  0.41836647  0.36045308    -0.30900
H618        H  0.96009137  0.39273891  0.37214364     0.10900
S619        S  0.94070460  0.29292624  0.38660306    -0.28000
H620        H  0.88898143  0.32020328  0.37712059     0.08200
H621        H  0.84383900  0.39832616  0.44709783     0.26600
H622        H  0.93455915  0.42872917  0.35778871     0.21400
H623        H  0.91389180  0.28232596  0.38421887     0.26700
H624        H  0.88594612  0.36416589  0.31836369     0.15600
C625        C  0.76730920  0.43510438  0.50773371    -0.11700
C626        C  0.75582490  0.42636899  0.53270960     0.14800
C627        C  0.72952984  0.41380781  0.53236004     0.01700
C628        C  0.71746381  0.40674507  0.50716137    -0.16100
C629        C  0.73057637  0.41284188  0.48218299    -0.10900
C630        C  0.75476152  0.42889994  0.48266675     0.08400
C631        C  0.77294965  0.42891758  0.55802703     0.09500
S632        S  0.71099047  0.40509261  0.56322778    -0.25200
H633        H  0.69882002  0.39453286  0.50714367     0.19700
S634        S  0.77127052  0.44075235  0.45172540    -0.30900
H635        H  0.78691151  0.44571650  0.50766078     0.10000
C636        C  0.78364235  0.40560338  0.57174193     0.03200
C637        C  0.80281955  0.40903829  0.59309363    -0.13200
C638        C  0.81204715  0.43522942  0.60074341    -0.08900
C639        C  0.80045184  0.45849721  0.58780662     0.06700
C640        C  0.78127132  0.45511727  0.56664352    -0.14000
S641        S  0.77521849  0.37134283  0.56032916    -0.30900
H642        H  0.81210035  0.39120614  0.60258762     0.10900
S643        S  0.80990358  0.49308920  0.59695165    -0.28000
H644        H  0.77325103  0.47310473  0.55630041     0.08200
H645        H  0.74803835  0.43797490  0.43482380     0.26600
H646        H  0.78828938  0.35722099  0.58180538     0.21400
H647        H  0.81592440  0.48719329  0.62449587     0.26700
H648        H  0.72394457  0.42452860  0.58010606     0.15600
C649        C  0.96859999  0.37582559  0.58274784    -0.11700
C650        C  0.95463138  0.36368801  0.56083538     0.14800
C651        C  0.92593333  0.35914408  0.56305680     0.01700
C652        C  0.91142144  0.36999673  0.58549712    -0.16100
C653        C  0.92512693  0.38489272  0.60588874    -0.10900
C654        C  0.95420233  0.38624893  0.60529554     0.08400
C655        C  0.97005207  0.35939523  0.53491014     0.09500
S656        S  0.90646876  0.34175265  0.53689687    -0.25200
H657        H  0.88912576  0.36895025  0.58572676     0.19700
S658        S  0.97376970  0.40357577  0.63146936    -0.30900
H659        H  0.99068057  0.37883957  0.58145468     0.10000
C660        C  0.96579520  0.37664933  0.51209713     0.03200
C661        C  0.98136616  0.37256417  0.48819718    -0.13200
C662        C  0.00152551  0.35184693  0.48658587    -0.08900
C663        C  0.00668046  0.33554971  0.51008644     0.06700
C664        C  0.99073747  0.33932757  0.53378318    -0.14000
S665        S  0.94094746  0.40432244  0.51353555    -0.30900
H666        H  0.97730051  0.38519095  0.47041498     0.10900
S667        S  0.03383709  0.31031248  0.51163845    -0.28000
H668        H  0.99469419  0.32673687  0.55164946     0.08200
H669        H  0.95375246  0.40099953  0.65222952     0.26600
H670        H  0.94510703  0.41411746  0.48673446     0.21400
H671        H  0.05252601  0.32562224  0.49570544     0.26700
H672        H  0.92860840  0.32640989  0.52626840     0.15600
C673        C  0.85697957  0.59382704  0.64970534    -0.11700
C674        C  0.86348428  0.60290628  0.62319243     0.14800
C675        C  0.86927924  0.58374413  0.60239689     0.01700
C676        C  0.87147910  0.55609778  0.60922772    -0.16100
C677        C  0.86783743  0.54731314  0.63641114    -0.10900
C678        C  0.85881943  0.56606387  0.65651814     0.08400
C679        C  0.86981386  0.63211129  0.61982146     0.09500
S680        S  0.87601510  0.59360795  0.56739134    -0.25200
H681        H  0.87779381  0.54164463  0.59351920     0.19700
S682        S  0.85027657  0.55500059  0.69087933    -0.30900
H683        H  0.85235949  0.60876305  0.66551545     0.10000
C684        C  0.84990813  0.65240152  0.62495835     0.03200
C685        C  0.85843970  0.67951246  0.62838801    -0.13200
C686        C  0.88650613  0.68657411  0.62681963    -0.08900
C687        C  0.90596489  0.66655173  0.61884007     0.06700
C688        C  0.89745663  0.63943806  0.61586049    -0.14000
S689        S  0.81393582  0.64350589  0.62835350    -0.30900
H690        H  0.84332981  0.69493849  0.63390120     0.10900
S691        S  0.94175109  0.67410879  0.61243760    -0.28000
H692        H  0.91270747  0.62370972  0.61159966     0.08200
H693        H  0.84096104  0.58059513  0.70058207     0.26600
H694        H  0.80422634  0.67010615  0.63419052     0.21400
H695        H  0.93665341  0.70037917  0.60163311     0.26700
H696        H  0.86128248  0.61847811  0.56847309     0.15600
C697        C  0.05231645  0.85324806  0.76851546    -0.11700
C698        C  0.04417771  0.86475395  0.74346994     0.14800
C699        C  0.05415220  0.89089318  0.73602454     0.01700
C700        C  0.07115518  0.90531858  0.75406011    -0.16100
C701        C  0.07910108  0.89416898  0.77944254    -0.10900
C702        C  0.06970962  0.86752689  0.78656528     0.08400
C703        C  0.02393838  0.84982293  0.72630365     0.09500
S704        S  0.04573348  0.90706931  0.70387412    -0.25200
H705        H  0.07832480  0.92552659  0.74810414     0.19700
S706        S  0.07821362  0.85197529  0.81909085    -0.30900
H707        H  0.04445156  0.83321949  0.77410993     0.10000
C708        C  0.03121123  0.82591503  0.71170560     0.03200
C709        C  0.01146206  0.81284399  0.69530861    -0.13200
C710        C  0.98438442  0.82299542  0.69335727    -0.08900
C711        C  0.97696205  0.84643733  0.70893785     0.06700
C712        C  0.99687539  0.85978403  0.72476888    -0.14000
S713        S  0.06591943  0.81263035  0.71316619    -0.30900
H714        H  0.01729335  0.79490112  0.68353044     0.10900
S715        S  0.94224239  0.85955586  0.71075443    -0.28000
H716        H  0.99111549  0.87784119  0.73645375     0.08200
H717        H  0.06233238  0.82804869  0.81605386     0.26600
H718        H  0.06131130  0.78908770  0.69713509     0.21400
H719        H  0.92971426  0.83351800  0.71125666     0.26700
H720        H  0.04308406  0.88265383  0.68875029     0.15600
C721        C  0.95931891  0.06248668  0.88048269    -0.11700
C722        C  0.95453751  0.03470620  0.87469490     0.14800
C723        C  0.92773908  0.02396519  0.87785591     0.01700
C724        C  0.90698808  0.04050176  0.88919926    -0.16100
C725        C  0.91235502  0.06770977  0.89696538    -0.10900
C726        C  0.93852321  0.07910761  0.89148701     0.08400
C727        C  0.97875494  0.01687228  0.86975946     0.09500
S728        S  0.91941198  0.98880544  0.86991991    -0.25200
H729        H  0.88709742  0.03150491  0.89381444     0.19700
S730        S  0.94764972  0.11359807  0.90143178    -0.30900
H731        H  0.97988817  0.07079275  0.87808864     0.10000
C732        C  0.99150816  0.01522383  0.84393756     0.03200
C733        C  0.01641992  0.00082369  0.84121249    -0.13200
C734        C  0.02910740  0.98818024  0.86390793    -0.08900
C735        C  0.01525831  0.98863317  0.88948895     0.06700
C736        C  0.99046505  0.00315099  0.89212977    -0.14000
S737        S  0.97637480  0.03209336  0.81468474    -0.30900
H738        H  0.02669386  0.00055831  0.82149895     0.10900
S739        S  0.02783720  0.97115759  0.91950459    -0.28000
H740        H  0.98041045  0.00420857  0.91196798     0.08200
H741        H  0.92105689  0.12467475  0.89881713     0.26600
H742        H  0.99566261  0.02280594  0.79519475     0.21400
H743        H  0.03877166  0.94865908  0.90506963     0.26700
H744        H  0.93991692  0.98522641  0.84983201     0.15600
C745        C  0.95077114  0.20070688  0.96764436    -0.11700
C746        C  0.95249658  0.21487076  0.94268954     0.14800
C747        C  0.93220082  0.20987102  0.92249475     0.01700
C748        C  0.91137321  0.19045737  0.92743531    -0.16100
C749        C  0.91078725  0.17497660  0.95170236    -0.10900
C750        C  0.93015982  0.18116289  0.97245766     0.08400
C751        C  0.97758051  0.23163846  0.93704716     0.09500
S752        S  0.93289487  0.22579061  0.88913098    -0.25200
H753        H  0.89682405  0.18589771  0.91128997     0.19700
S754        S  0.92983137  0.16470837  0.00553923    -0.30900
H755        H  0.96609594  0.20442616  0.98329330     0.10000
C756        C  0.97672644  0.26022706  0.93212339     0.03200
C757        C  0.00035037  0.27365692  0.92185409    -0.13200
C758        C  0.02483097  0.25902277  0.91691863    -0.08900
C759        C  0.02638458  0.23115062  0.92488708     0.06700
C760        C  0.00282221  0.21780247  0.93477773    -0.14000
S761        S  0.94534306  0.27928182  0.93791124    -0.30900
H762        H  0.99910088  0.29496031  0.91563513     0.10900
S763        S  0.05810563  0.21200393  0.92067853    -0.28000
H764        H  0.00363453  0.19605810  0.93934718     0.08200
H765        H  0.90096917  0.16256342  0.00691239     0.26600
H766        H  0.95608936  0.30527402  0.93131713     0.21400
H767        H  0.04768392  0.18622399  0.92849411     0.26700
H768        H  0.96170970  0.22633498  0.88639577     0.15600
C769        C  0.94592186  0.36776193  0.75781977    -0.11700
C770        C  0.96851424  0.38198860  0.76854582     0.14800
C771        C  0.97193625  0.41002692  0.76212235     0.01700
C772        C  0.95282203  0.42307991  0.74510703    -0.16100
C773        C  0.93049952  0.40874412  0.73362331    -0.10900
C774        C  0.92675321  0.38077893  0.74081317     0.08400
C775        C  0.98860181  0.36658827  0.78540709     0.09500
S776        S  0.00055370  0.43018625  0.77428738    -0.25200
H777        H  0.95610680  0.44447080  0.73996661     0.19700
S778        S  0.89776395  0.36055275  0.72981602    -0.30900
H779        H  0.94311975  0.34627954  0.76291972     0.10000
C780        C  0.99003912  0.36962391  0.81410533     0.03200
C781        C  0.00934532  0.35411790  0.82898455    -0.13200
C782        C  0.02692425  0.33542023  0.81569552    -0.08900
C783        C  0.02575475  0.33295532  0.78684907     0.06700
C784        C  0.00646035  0.34826676  0.77214537    -0.14000
S785        S  0.96657276  0.39236645  0.83179830    -0.30900
H786        H  0.01018342  0.35586535  0.85107587     0.10900
S787        S  0.04876025  0.31117119  0.76746420    -0.28000
H788        H  0.00554994  0.34614182  0.75006251     0.08200
H789        H  0.87851535  0.38196543  0.73240871     0.26600
H790        H  0.97617766  0.38696720  0.85841002     0.21400
H791        H  0.07144276  0.31432515  0.78500674     0.26700
H792        H  0.01959369  0.40852748  0.77616400     0.15600
C793        C  0.14568214  0.14926201  0.88070576    -0.11700
C794        C  0.12559181  0.13041434  0.87277213     0.14800
C795        C  0.09927114  0.13966922  0.86503830     0.01700
C796        C  0.09460228  0.16766863  0.86215482    -0.16100
C797        C  0.11540603  0.18691917  0.86769521    -0.10900
C798        C  0.14064475  0.17746818  0.87904656     0.08400
C799        C  0.13274349  0.10127608  0.87060287     0.09500
S800        S  0.07130955  0.11669556  0.85692283    -0.25200
H801        H  0.07471102  0.17425360  0.85460202     0.19700
S802        S  0.16730519  0.19976500  0.89176956    -0.30900
H803        H  0.16553839  0.14194369  0.88770880     0.10000
C804        C  0.13612909  0.08904588  0.84472647     0.03200
C805        C  0.13554696  0.06049116  0.84261749    -0.13200
C806        C  0.13172106  0.04404312  0.86593026    -0.08900
C807        C  0.13118728  0.05645050  0.89225094     0.06700
C808        C  0.13184824  0.08509884  0.89419567    -0.14000
S809        S  0.13940306  0.10992153  0.81427007    -0.30900
H810        H  0.13676667  0.05097753  0.82259707     0.10900
S811        S  0.12654493  0.03672084  0.92334342    -0.28000
H812        H  0.12939957  0.09503935  0.91390065     0.08200
H813        H  0.14880135  0.21695676  0.90598257     0.26600
H814        H  0.14312727  0.08816863  0.79564919     0.21400
H815        H  0.12948912  0.05856905  0.94194796     0.26700
H816        H  0.07887256  0.09585462  0.87532904     0.15600
C817        C  0.24609910  0.40016534  0.79491092    -0.11700
C818        C  0.23219045  0.37527536  0.79134351     0.14800
C819        C  0.24471244  0.35424417  0.77563035     0.01700
C820        C  0.27050973  0.35873146  0.76354285    -0.16100
C821        C  0.28469819  0.38352767  0.76733094    -0.10900
C822        C  0.27234104  0.40430601  0.78371514     0.08400
C823        C  0.20489034  0.37142538  0.80450249     0.09500
S824        S  0.22909011  0.32103122  0.77058827    -0.25200
H825        H  0.27968042  0.34257319  0.75124714     0.19700
S826        S  0.28944782  0.43586539  0.79271761    -0.30900
H827        H  0.23673530  0.41621253  0.80721569     0.10000
C828        C  0.20220098  0.36849463  0.83316985     0.03200
C829        C  0.17709464  0.35939064  0.84422367    -0.13200
C830        C  0.15499818  0.35258277  0.82711325    -0.08900
C831        C  0.15682221  0.35848056  0.79886487     0.06700
C832        C  0.18170157  0.36788132  0.78784000    -0.14000
S833        S  0.23156593  0.37282010  0.85536933    -0.30900
H834        H  0.17576966  0.35444776  0.86581902     0.10900
S835        S  0.12875252  0.35202555  0.77567723    -0.28000
H836        H  0.18352492  0.37076138  0.76589451     0.08200
H837        H  0.31499239  0.42323710  0.79792403     0.26600
H838        H  0.21728502  0.36944178  0.88026501     0.21400
H839        H  0.10796135  0.35252441  0.79582875     0.26700
H840        H  0.21631491  0.31958693  0.79644250     0.15600
C841        C  0.17913279  0.28841458  0.97229388    -0.11700
C842        C  0.20422483  0.30150101  0.96598061     0.14800
C843        C  0.20818360  0.31161436  0.93907548     0.01700
C844        C  0.18781443  0.30771735  0.91923124    -0.16100
C845        C  0.16266665  0.29485541  0.92544551    -0.10900
C846        C  0.15837604  0.28505739  0.95243293     0.08400
C847        C  0.22621840  0.30435716  0.98727575     0.09500
S848        S  0.23847875  0.33048353  0.92880447    -0.25200
H849        H  0.19139073  0.31555935  0.89874432     0.19700
S850        S  0.12751023  0.26713189  0.96250416    -0.30900
H851        H  0.17584911  0.28040966  0.99275115     0.10000
C852        C  0.22271148  0.32138452  0.01047311     0.03200
C853        C  0.24568316  0.32820157  0.02665048    -0.13200
C854        C  0.27228262  0.31894285  0.01988405    -0.08900
C855        C  0.27528850  0.29996911  0.99819015     0.06700
C856        C  0.25230143  0.29265330  0.98239569    -0.14000
S857        S  0.18983197  0.33732583  0.01756147    -0.30900
H858        H  0.24342766  0.34325084  0.04284586     0.10900
S859        S  0.30837409  0.28633021  0.98820582    -0.28000
H860        H  0.25516432  0.27921274  0.96491941     0.08200
H861        H  0.12345333  0.25398485  0.93719100     0.26600
H862        H  0.19786027  0.35157732  0.04128160     0.21400
H863        H  0.32171614  0.29193348  0.01310289     0.26700
H864        H  0.24233613  0.34377675  0.95407357     0.15600
C865        C  0.36478401  0.35348074  0.90145311    -0.11700
C866        C  0.39254548  0.35707231  0.89441972     0.14800
C867        C  0.41229236  0.36097938  0.91498742     0.01700
C868        C  0.40353123  0.36375896  0.94205477    -0.16100
C869        C  0.37536281  0.36258988  0.94896813    -0.10900
C870        C  0.35598916  0.35580056  0.92853344     0.08400
C871        C  0.39883500  0.36187526  0.86547046     0.09500
S872        S  0.44856850  0.36427823  0.90767390    -0.25200
H873        H  0.41876751  0.36840071  0.95753376     0.19700
S874        S  0.31986859  0.35041759  0.93532075    -0.30900
H875        H  0.34965549  0.35017557  0.88551094     0.10000
C876        C  0.39587401  0.34089155  0.84605456     0.03200
C877        C  0.39363811  0.34791175  0.81844588    -0.13200
C878        C  0.39399316  0.37559405  0.81012258    -0.08900
C879        C  0.40031706  0.39625563  0.82939840     0.06700
C880        C  0.40254757  0.38910063  0.85701288    -0.14000
S881        S  0.39309533  0.30548884  0.85673012    -0.30900
H882        H  0.38947197  0.33190537  0.80365104     0.10900
S883        S  0.40477264  0.43173096  0.81938690    -0.28000
H884        H  0.40521026  0.40496217  0.87232691     0.08200
H885        H  0.32413263  0.33828983  0.96106289     0.26600
H886        H  0.39237879  0.29402484  0.83029219     0.21400
H887        H  0.41283976  0.44170244  0.84517914     0.26700
H888        H  0.44816404  0.34936567  0.88300756     0.15600
C889        C  0.83724746  0.52774159  0.81979100    -0.11700
C890        C  0.81285340  0.51543179  0.81050887     0.14800
C891        C  0.78777178  0.52195326  0.82377435     0.01700
C892        C  0.78743833  0.54175986  0.84469766    -0.16100
C893        C  0.81172682  0.55477197  0.85333208    -0.10900
C894        C  0.83698147  0.54718725  0.84100950     0.08400
C895        C  0.81425693  0.49827794  0.78525601     0.09500
S896        S  0.75540852  0.50675010  0.81405223    -0.25200
H897        H  0.76790714  0.54773309  0.85374626     0.19700
S898        S  0.86909750  0.56363385  0.84940463    -0.30900
H899        H  0.85655280  0.52301034  0.80960296     0.10000
C900        C  0.80685448  0.50911536  0.75950522     0.03200
C901        C  0.81346247  0.49446557  0.73554233    -0.13200
C902        C  0.82777291  0.46932763  0.73659287    -0.08900
C903        C  0.83278706  0.45743003  0.76254194     0.06700
C904        C  0.82630685  0.47210321  0.78649607    -0.14000
S905        S  0.79191734  0.54302732  0.75692159    -0.30900
H906        H  0.80999778  0.50391374  0.71576721     0.10900
S907        S  0.85088784  0.42541891  0.76636259    -0.28000
H908        H  0.83196958  0.46365491  0.80622597     0.08200
H909        H  0.86335139  0.56700953  0.87740400     0.26600
H910        H  0.78963010  0.54360727  0.72821104     0.21400
H911        H  0.83612421  0.41219439  0.74546003     0.26700
H912        H  0.76652435  0.48229825  0.80340220     0.15600
C913        C  0.87052988  0.70968005  0.83191441    -0.11700
C914        C  0.88663276  0.69484638  0.81324975     0.14800
C915        C  0.89318960  0.66713919  0.81890160     0.01700
C916        C  0.88061400  0.65390721  0.84119474    -0.16100
C917        C  0.86175056  0.66796371  0.85792145    -0.10900
C918        C  0.85800934  0.69656628  0.85421316     0.08400
C919        C  0.89136243  0.70726867  0.78596123     0.09500
S920        S  0.91520211  0.64704330  0.79684230    -0.25200
H921        H  0.88359585  0.63201650  0.84389338     0.19700
S922        S  0.83531756  0.71600448  0.87646555    -0.30900
H923        H  0.86594566  0.73102692  0.82766813     0.10000
C924        C  0.87384446  0.70083625  0.76391021     0.03200
C925        C  0.87732491  0.71425351  0.73876347    -0.13200
C926        C  0.89788534  0.73417910  0.73507809    -0.08900
C927        C  0.91498735  0.74109659  0.75752518     0.06700
C928        C  0.91159806  0.72748850  0.78263206    -0.14000
S929        S  0.84658591  0.67588465  0.76794877    -0.30900
H930        H  0.86426603  0.70879908  0.72168651     0.10900
S931        S  0.94065211  0.76779457  0.75590735    -0.28000
H932        H  0.92448991  0.73300266  0.79984160     0.08200
H933        H  0.83820505  0.74147572  0.86319117     0.26600
H934        H  0.83624308  0.67761544  0.74112885     0.21400
H935        H  0.92521251  0.78518575  0.73879303     0.26700
H936        H  0.93004082  0.66937409  0.78609363     0.15600
C937        C  0.47192702  0.55635867  0.78471832    -0.11700
C938        C  0.44590420  0.54706626  0.77629899     0.14800
C939        C  0.42213243  0.55908847  0.78832644     0.01700
C940        C  0.42489627  0.58021378  0.80766669    -0.16100
C941        C  0.45085608  0.58869695  0.81678011    -0.10900
C942        C  0.47464697  0.57681917  0.80483715     0.08400
C943        C  0.44406860  0.52310729  0.75720290     0.09500
S944        S  0.38772383  0.54673549  0.78199800    -0.25200
H945        H  0.40656831  0.58860290  0.81728460     0.19700
S946        S  0.50901915  0.58642742  0.81493232    -0.30900
H947        H  0.49029153  0.54712089  0.77600472     0.10000
C948        C  0.43003108  0.52449052  0.73191168     0.03200
C949        C  0.42305736  0.50001519  0.71815091    -0.13200
C950        C  0.43030970  0.47425154  0.72893735    -0.08900
C951        C  0.44770514  0.47331891  0.75204391     0.06700
C952        C  0.45421742  0.49759396  0.76601741    -0.14000
S953        S  0.41964837  0.55725826  0.71800530    -0.30900
H954        H  0.40966433  0.50084587  0.70048270     0.10900
S955        S  0.45996816  0.44131251  0.76605261    -0.28000
H956        H  0.46575605  0.49633511  0.78493477     0.08200
H957        H  0.50233028  0.61334298  0.82305073     0.26600
H958        H  0.40735014  0.54694352  0.69408393     0.21400
H959        H  0.45644513  0.42589349  0.74194379     0.26700
H960        H  0.39503599  0.51889990  0.77947460     0.15600
C961        C  0.37176761  0.54496972  0.92809135    -0.11700
C962        C  0.37192660  0.54639495  0.95684604     0.14800
C963        C  0.38066359  0.57090422  0.96960112     0.01700
C964        C  0.39151329  0.59214895  0.95359073    -0.16100
C965        C  0.39347989  0.58977563  0.92498407    -0.10900
C966        C  0.38216485  0.56648365  0.91206183     0.08400
C967        C  0.36696717  0.52082026  0.97272399     0.09500
S968        S  0.38044283  0.57549454  0.00627367    -0.25200
H969        H  0.40048222  0.60981326  0.96369840     0.19700
S970        S  0.38400700  0.56138658  0.87553898    -0.30900
H971        H  0.36519269  0.52623111  0.91810138     0.10000
C972        C  0.34166460  0.50678156  0.97176867     0.03200
C973        C  0.33900774  0.48142398  0.98518550    -0.13200
C974        C  0.36109253  0.46968029  0.99976647    -0.08900
C975        C  0.38593635  0.48469421  0.00192824     0.06700
C976        C  0.38873658  0.50965024  0.98797552    -0.14000
S977        S  0.31270849  0.52117331  0.95356665    -0.30900
H978        H  0.31979516  0.47031508  0.98358682     0.10900
S979        S  0.41460702  0.47371057  0.02259235    -0.28000
H980        H  0.40817877  0.52050227  0.98896372     0.08200
H981        H  0.37993778  0.58914739  0.86884552     0.26600
H982        H  0.29412197  0.49968407  0.95888873     0.21400
H983        H  0.39811571  0.46333836  0.04393748     0.26700
H984        H  0.35855854  0.55732971  0.01150010     0.15600
C985        C  0.60784184  0.63823933  0.87779064    -0.11700
C986        C  0.61535360  0.61048701  0.87900984     0.14800
C987        C  0.59506311  0.59006176  0.88059127     0.01700
C988        C  0.56755508  0.59794367  0.88238553    -0.16100
C989        C  0.55990194  0.62587184  0.88252281    -0.10900
C990        C  0.58036356  0.64620120  0.87918409     0.08400
C991        C  0.64464408  0.60434716  0.88176819     0.09500
S992        S  0.60304400  0.55388452  0.88153547    -0.25200
H993        H  0.55213162  0.58205881  0.88481062     0.19700
S994        S  0.57319355  0.68246307  0.87680355    -0.30900
H995        H  0.62366125  0.65388387  0.87644408     0.10000
C996        C  0.66294339  0.61020253  0.86024465     0.03200
C997        C  0.69091788  0.61243203  0.86595510    -0.13200
C998        C  0.70064406  0.60900496  0.89280619    -0.08900
C999        C  0.68266625  0.59963546  0.91350990     0.06700
C1000       C  0.65462915  0.59772331  0.90784323    -0.14000
S1001       S  0.65034620  0.61692015  0.82610265    -0.30900
H1002       H  0.70488585  0.61900471  0.84990888     0.10900
S1003       S  0.69415693  0.59054461  0.94740822    -0.28000
H1004       H  0.64036005  0.59265207  0.92420117     0.08200
H1005       H  0.54831220  0.67916904  0.86270318     0.26600
H1006       H  0.67625055  0.62026967  0.81355295     0.21400
H1007       H  0.72057029  0.58203184  0.93902216     0.26700
H1008       H  0.62810853  0.55572370  0.86714284     0.15600
C1009       C  0.38851100  0.89551747  0.40004215    -0.11700
C1010       C  0.37560635  0.88118026  0.37887642     0.14800
C1011       C  0.36458940  0.89548113  0.35633279     0.01700
C1012       C  0.37001024  0.92339279  0.35360591    -0.16100
C1013       C  0.38516615  0.93735403  0.37355791    -0.10900
C1014       C  0.39316322  0.92362825  0.39775778     0.08400
C1015       C  0.38076011  0.85167598  0.37710286     0.09500
S1016       S  0.34640336  0.87854362  0.32897666    -0.25200
H1017       H  0.36346297  0.93400229  0.33524617     0.19700
S1018       S  0.41299687  0.93985728  0.42429093    -0.30900
H1019       H  0.39709888  0.88438205  0.41724927     0.10000
C1020       C  0.40137416  0.84191538  0.35930197     0.03200
C1021       C  0.40574172  0.81384323  0.35722149    -0.13200
C1022       C  0.39055393  0.79518619  0.37314830    -0.08900
C1023       C  0.37090788  0.80516788  0.39227490     0.06700
C1024       C  0.36611298  0.83351197  0.39386606    -0.14000
S1025       S  0.42255049  0.86522252  0.33944825    -0.30900
H1026       H  0.42091144  0.80644217  0.34268583     0.10900
S1027       S  0.35271501  0.78251698  0.41545826    -0.28000
H1028       H  0.35101662  0.84165661  0.40809285     0.08200
H1029       H  0.39200159  0.95873758  0.43077381     0.26600
H1030       H  0.44015331  0.84536435  0.32787943     0.21400
H1031       H  0.33689000  0.80279323  0.42872178     0.26700
H1032       H  0.33772315  0.85588567  0.34461982     0.15600
C1033       C  0.92642906  0.91782537  0.22583967    -0.11700
C1034       C  0.94828455  0.93585475  0.23133220     0.14800
C1035       C  0.97445053  0.93007223  0.21994326     0.01700
C1036       C  0.97737105  0.90854019  0.20108153    -0.16100
C1037       C  0.95508800  0.89151634  0.19407065    -0.10900
C1038       C  0.92963857  0.89557677  0.20776393     0.08400
C1039       C  0.94218312  0.96215699  0.24586008     0.09500
S1040       S  0.00460304  0.95021336  0.22763194    -0.25200
H1041       H  0.99709851  0.90559329  0.19110729     0.19700
S1042       S  0.89969531  0.87508966  0.20074757    -0.30900
H1043       H  0.90631710  0.92190552  0.23465697     0.10000
C1044       C  0.94270298  0.98744381  0.23173434     0.03200
C1045       C  0.93391676  0.01143844  0.24507478    -0.13200
C1046       C  0.92343769  0.01092364  0.27197363    -0.08900
C1047       C  0.92431457  0.98581114  0.28656321     0.06700
C1048       C  0.93349085  0.96177273  0.27335118    -0.14000
S1049       S  0.95135959  0.98886776  0.19568823    -0.30900
H1050       H  0.93313252  0.03048585  0.23372117     0.10900
S1051       S  0.91115790  0.98252275  0.32090564    -0.28000
H1052       H  0.93293449  0.94241932  0.28428753     0.08200
H1053       H  0.91290654  0.85031769  0.20763986     0.26600
H1054       H  0.95129865  0.01763670  0.19321311     0.21400
H1055       H  0.92647675  0.00485603  0.33087327     0.26700
H1056       H  0.99540614  0.95964496  0.25330777     0.15600
C1057       C  0.88312468  0.70372437  0.99285572    -0.11700
C1058       C  0.87368507  0.70753259  0.01978611     0.14800
C1059       C  0.84860288  0.69534318  0.02795854     0.01700
C1060       C  0.83333571  0.68019272  0.00898508    -0.16100
C1061       C  0.84286987  0.67610314  0.98207947    -0.10900
C1062       C  0.86807257  0.68828155  0.97395895     0.08400
C1063       C  0.88948078  0.72590329  0.03815488     0.09500
S1064       S  0.83523917  0.69790769  0.06238781    -0.25200
H1065       H  0.81412388  0.67094624  0.01551894     0.19700
S1066       S  0.88145589  0.68634488  0.93949731    -0.30900
H1067       H  0.90207631  0.71350311  0.98630439     0.10000
C1068       C  0.91646328  0.71942509  0.04648017     0.03200
C1069       C  0.93095544  0.73798088  0.06295990    -0.13200
C1070       C  0.91924471  0.76314270  0.07121264    -0.08900
C1071       C  0.89226305  0.76968616  0.06240450     0.06700
C1072       C  0.87764877  0.75089602  0.04635460    -0.14000
S1073       S  0.93221046  0.68716809  0.03684831    -0.30900
H1074       H  0.95149195  0.73267849  0.06972415     0.10900
S1075       S  0.87588581  0.80219298  0.06934133    -0.28000
H1076       H  0.85711122  0.75615066  0.03946711     0.08200
H1077       H  0.85556649  0.68815754  0.92686070     0.26600
H1078       H  0.95842580  0.69258571  0.04773799     0.21400
H1079       H  0.89978760  0.81773388  0.06437724     0.26700
H1080       H  0.86099130  0.69967838  0.07533917     0.15600
C1081       C  0.89275799  0.96847536  0.01820627    -0.11700
C1082       C  0.87354205  0.95971062  0.03792699     0.14800
C1083       C  0.84934738  0.97520678  0.04215251     0.01700
C1084       C  0.84535231  0.99949148  0.02735604    -0.16100
C1085       C  0.86501953  0.00886418  0.00832885    -0.10900
C1086       C  0.88867796  0.99269002  0.00323589     0.08400
C1087       C  0.88086766  0.93606725  0.05560114     0.09500
S1088       S  0.82335435  0.96564515  0.06683984    -0.25200
H1089       H  0.82715339  0.01173703  0.03152834     0.19700
S1090       S  0.91426312  0.00172560  0.97792932    -0.30900
H1091       H  0.91137920  0.95661614  0.01486732     0.10000
C1092       C  0.88212476  0.90905158  0.04528020     0.03200
C1093       C  0.89386906  0.88817174  0.06134022    -0.13200
C1094       C  0.90397678  0.89386202  0.08760287    -0.08900
C1095       C  0.90075983  0.92043676  0.09865968     0.06700
C1096       C  0.88919426  0.94128305  0.08256891    -0.14000
S1097       S  0.86980972  0.90149571  0.01127440    -0.30900
H1098       H  0.89692724  0.86790334  0.05274807     0.10900
S1099       S  0.91368137  0.92832565  0.13244953    -0.28000
H1100       H  0.88802902  0.96206204  0.09039463     0.08200
H1101       H  0.89563097  0.01414562  0.95971286     0.26600
H1102       H  0.87339203  0.87286135  0.01277983     0.21400
H1103       H  0.90447246  0.95571527  0.13333163     0.26700
H1104       H  0.82823557  0.93720918  0.06561561     0.15600
C1105       C  0.02649035  0.83409838  0.98170453    -0.11700
C1106       C  0.04558329  0.85543027  0.97873452     0.14800
C1107       C  0.04894923  0.87445861  0.00032271     0.01700
C1108       C  0.03472312  0.87059510  0.02497181    -0.16100
C1109       C  0.01623774  0.84868075  0.02846813    -0.10900
C1110       C  0.01146411  0.83078611  0.00604193     0.08400
C1111       C  0.06043986  0.85863471  0.95238530     0.09500
S1112       S  0.07102804  0.90415521  0.99774566    -0.25200
H1113       H  0.03851734  0.88467401  0.04172464     0.19700
S1114       S  0.98588312  0.80398505  0.00663569    -0.30900
H1115       H  0.02303792  0.82012251  0.96478690     0.10000
C1116       C  0.08930982  0.85572605  0.95045404     0.03200
C1117       C  0.10312042  0.86587781  0.92722720    -0.13200
C1118       C  0.08843029  0.87873096  0.90610985    -0.08900
C1119       C  0.05933207  0.87816464  0.90659171     0.06700
C1120       C  0.04565115  0.86817628  0.92973513    -0.14000
S1121       S  0.10862244  0.84110400  0.97843661    -0.30900
H1122       H  0.12541694  0.86642257  0.92685649     0.10900
S1123       S  0.03857428  0.89265886  0.87957222    -0.28000
H1124       H  0.02341476  0.86981741  0.93092943     0.08200
H1125       H  0.96663849  0.81916025  0.02210003     0.26600
H1126       H  0.13453715  0.84193587  0.96547703     0.21400
H1127       H  0.05945368  0.89385401  0.85961673     0.26700
H1128       H  0.06668736  0.90894446  0.96969433     0.15600
C1129       C  0.23554642  0.92426223  0.00693088    -0.11700
C1130       C  0.24922833  0.92106850  0.98175216     0.14800
C1131       C  0.27698842  0.91206899  0.98193159     0.01700
C1132       C  0.28931473  0.90393828  0.00674597    -0.16100
C1133       C  0.27470100  0.90484396  0.03166580    -0.10900
C1134       C  0.24793769  0.91650923  0.03169682     0.08400
C1135       C  0.23305361  0.92519093  0.95597073     0.09500
S1136       S  0.29725326  0.90908360  0.95105189    -0.25200
H1137       H  0.30978130  0.89505027  0.00625494     0.19700
S1138       S  0.22796329  0.92081244  0.06264438    -0.30900
H1139       H  0.21451705  0.93175583  0.00719978     0.10000
C1140       C  0.22439028  0.90274199  0.93976402     0.03200
C1141       C  0.20649838  0.90716031  0.91747129    -0.13200
C1142       C  0.19647018  0.93350548  0.91125094    -0.08900
C1143       C  0.20603948  0.95605489  0.92685945     0.06700
C1144       C  0.22395796  0.95166587  0.94900351    -0.14000
S1145       S  0.23408934  0.86812087  0.94893950    -0.30900
H1146       H  0.19879508  0.88979524  0.90598179     0.10900
S1147       S  0.19569434  0.99092628  0.91979234    -0.28000
H1148       H  0.23045740  0.96901311  0.96127231     0.08200
H1149       H  0.25066794  0.92208135  0.08041948     0.26600
H1150       H  0.22033180  0.85481547  0.92740202     0.21400
H1151       H  0.19108116  0.98695004  0.89164154     0.26700
H1152       H  0.28276538  0.92897695  0.93599395     0.15600
C1153       C  0.31953046  0.97155706  0.25623135    -0.11700
C1154       C  0.32543729  0.98161998  0.22991276     0.14800
C1155       C  0.33569089  0.00872719  0.22735023     0.01700
C1156       C  0.34361635  0.02329875  0.25092390    -0.16100
C1157       C  0.34065592  0.01175180  0.27712674    -0.10900
C1158       C  0.32663216  0.98645892  0.27971353     0.08400
C1159       C  0.32289527  0.96236147  0.20617755     0.09500
S1160       S  0.34060220  0.02517518  0.19460700    -0.25200
H1161       H  0.35428770  0.04269439  0.24860107     0.19700
S1162       S  0.31959039  0.97108440  0.31262658    -0.30900
H1163       H  0.31077239  0.95122987  0.25855991     0.10000
C1164       C  0.34624958  0.95304154  0.19136594     0.03200
C1165       C  0.34316566  0.93294569  0.17082737    -0.13200
C1166       C  0.31738923  0.92128543  0.16523868    -0.08900
C1167       C  0.29405402  0.93085353  0.17984039     0.06700
C1168       C  0.29704378  0.95110542  0.20006075    -0.14000
S1169       S  0.38039027  0.96464202  0.20031296    -0.30900
H1170       H  0.36112328  0.92507030  0.16019397     0.10900
S1171       S  0.25993614  0.91761146  0.17393302    -0.28000
H1172       H  0.27908121  0.95786172  0.21146740     0.08200
H1173       H  0.32142153  0.99559040  0.32778362     0.26600
H1174       H  0.39456871  0.95083438  0.17923022     0.21400
H1175       H  0.26401539  0.91201153  0.14594016     0.26700
H1176       H  0.32097474  0.00950206  0.18043877     0.15600
C1177       C  0.40718733  0.76117414  0.96077910    -0.11700
C1178       C  0.38391532  0.75077361  0.97424077     0.14800
C1179       C  0.37472982  0.72398469  0.96812354     0.01700
C1180       C  0.38938210  0.70803783  0.94911627    -0.16100
C1181       C  0.41330733  0.71808657  0.93627395    -0.10900
C1182       C  0.42176237  0.74534987  0.94173408     0.08400
C1183       C  0.36952923  0.76880636  0.99404579     0.09500
S1184       S  0.34496994  0.70874499  0.98427787    -0.25200
H1185       H  0.38264568  0.68720718  0.94516510     0.19700
S1186       S  0.45024470  0.76164058  0.92441696    -0.30900
H1187       H  0.41388109  0.78197464  0.96498149     0.10000
C1188       C  0.38112586  0.77476432  0.01976544     0.03200
C1189       C  0.36763957  0.79311962  0.03743452    -0.13200
C1190       C  0.34258397  0.80556442  0.03004058    -0.08900
C1191       C  0.33133050  0.79985169  0.00388568     0.06700
C1192       C  0.34473405  0.78132296  0.98639231    -0.14000
S1193       S  0.41269293  0.75828553  0.03041883    -0.30900
H1194       H  0.37638087  0.79733440  0.05733050     0.10900
S1195       S  0.30083497  0.81648295  0.99091444    -0.28000
H1196       H  0.33615635  0.77713200  0.96636078     0.08200
H1197       H  0.44564689  0.74845459  0.89926079     0.26600
H1198       H  0.41423533  0.77056533  0.05645120     0.21400
H1199       H  0.30684588  0.84220136  0.00254445     0.26700
H1200       H  0.34686067  0.72318343  0.00912302     0.15600
C1201       C  0.38873356  0.76969131  0.17446408    -0.11700
C1202       C  0.39638458  0.78308647  0.19865318     0.14800
C1203       C  0.39847568  0.81207935  0.19868305     0.01700
C1204       C  0.38846178  0.82705190  0.17627844    -0.16100
C1205       C  0.37686102  0.81355414  0.15373985    -0.10900
C1206       C  0.37921899  0.78466577  0.15193203     0.08400
C1207       C  0.39711400  0.76690501  0.22444161     0.09500
S1208       S  0.41071739  0.83108572  0.22792156    -0.25200
H1209       H  0.38680804  0.84919527  0.17788341     0.19700
S1210       S  0.36677725  0.76571155  0.12275585    -0.30900
H1211       H  0.38781138  0.74746197  0.17396773     0.10000
C1212       C  0.37650513  0.77039651  0.24459396     0.03200
C1213       C  0.37835215  0.75597121  0.26932569    -0.13200
C1214       C  0.39998086  0.73742094  0.27433530    -0.08900
C1215       C  0.41921144  0.73204903  0.25303501     0.06700
C1216       C  0.41769115  0.74708340  0.22844101    -0.14000
S1217       S  0.34740664  0.79285842  0.23867537    -0.30900
H1218       H  0.36318003  0.75980787  0.28516889     0.10900
S1219       S  0.44515273  0.70559193  0.25642390    -0.28000
H1220       H  0.43270658  0.74367146  0.21234416     0.08200
H1221       H  0.36643941  0.78820740  0.10474480     0.26600
H1222       H  0.33467063  0.78933969  0.26435709     0.21400
H1223       H  0.45559095  0.70722662  0.22955522     0.26700
H1224       H  0.42652770  0.80961872  0.23903511     0.15600
C1225       C  0.16803778  0.84177855  0.16504671    -0.11700
C1226       C  0.15188935  0.85934454  0.14906317     0.14800
C1227       C  0.16441524  0.87751168  0.13032205     0.01700
C1228       C  0.19259238  0.87547886  0.12558515    -0.16100
C1229       C  0.20830766  0.85608654  0.13965239    -0.10900
C1230       C  0.19636221  0.83985183  0.16040606     0.08400
C1231       C  0.12279008  0.85252797  0.14614861     0.09500
S1232       S  0.14502229  0.90104698  0.10938218    -0.25200
H1233       H  0.20206571  0.88802459  0.10984477     0.19700
S1234       S  0.21636724  0.81421445  0.17834021    -0.30900
H1235       H  0.15803127  0.82768939  0.17905658     0.10000
C1236       C  0.11485148  0.83304283  0.12644519     0.03200
C1237       C  0.08698341  0.82864946  0.12178873    -0.13200
C1238       C  0.06687469  0.84333961  0.13643148    -0.08900
C1239       C  0.07503940  0.86136723  0.15769522     0.06700
C1240       C  0.10303493  0.86591226  0.16218230    -0.14000
S1241       S  0.14025236  0.81458610  0.10635624    -0.30900
H1242       H  0.08091688  0.81466605  0.10567376     0.10900
S1243       S  0.05110508  0.87896410  0.17989557    -0.28000
H1244       H  0.10947878  0.88032340  0.17780679     0.08200
H1245       H  0.19488385  0.80426258  0.19498790     0.26600
H1246       H  0.12169914  0.79841384  0.09131284     0.21400
H1247       H  0.03198226  0.85730030  0.18085279     0.26700
H1248       H  0.12378326  0.90534563  0.12852523     0.15600
C1249       C  0.53548248  0.80517489  0.78942913    -0.11700
C1250       C  0.52838581  0.79581158  0.81573851     0.14800
C1251       C  0.54018544  0.80898878  0.83875350     0.01700
C1252       C  0.55850075  0.83096713  0.83500560    -0.16100
C1253       C  0.56648222  0.83953565  0.80873173    -0.10900
C1254       C  0.55427964  0.82681934  0.78570743     0.08400
C1255       C  0.51020432  0.77125167  0.81880956     0.09500
S1256       S  0.53431834  0.79750441  0.87342878    -0.25200
H1257       H  0.56816612  0.84012174  0.85276773     0.19700
S1258       S  0.56223456  0.83709405  0.75106656    -0.30900
H1259       H  0.52664082  0.79525866  0.77165105     0.10000
C1260       C  0.48387197  0.77291977  0.83110616     0.03200
C1261       C  0.47025916  0.74867780  0.83922320    -0.13200
C1262       C  0.48247293  0.72279814  0.83527774    -0.08900
C1263       C  0.50710568  0.72116217  0.81983404     0.06700
C1264       C  0.52077782  0.74528945  0.81193435    -0.14000
S1265       S  0.46838397  0.80596832  0.83786275    -0.30900
H1266       H  0.45119539  0.75001149  0.85068134     0.10900
S1267       S  0.52272868  0.68874803  0.81087719    -0.28000
H1268       H  0.54059005  0.74377883  0.80174754     0.08200
H1269       H  0.56917382  0.86438574  0.75744799     0.26600
H1270       H  0.44408142  0.79598719  0.85004330     0.21400
H1271       H  0.49878507  0.67285717  0.81425637     0.26700
H1272       H  0.53251281  0.76938004  0.86721580     0.15600
C1273       C  0.71000594  0.01410974  0.84758850    -0.11700
C1274       C  0.72402204  0.00384361  0.87040876     0.14800
C1275       C  0.71850837  0.97690459  0.87962601     0.01700
C1276       C  0.69967220  0.96062593  0.86529022    -0.16100
C1277       C  0.68597581  0.97062272  0.84201029    -0.10900
C1278       C  0.69091238  0.99801536  0.83349016     0.08400
C1279       C  0.74375063  0.02208664  0.88438264     0.09500
S1280       S  0.73537823  0.96155943  0.90879217    -0.25200
H1281       H  0.69623487  0.93968644  0.87198841     0.19700
S1282       S  0.67302277  0.01410138  0.80543340    -0.30900
H1283       H  0.71383997  0.03497179  0.84084591     0.10000
C1284       C  0.77204277  0.02192246  0.87785887     0.03200
C1285       C  0.78997462  0.03943935  0.89208276    -0.13200
C1286       C  0.78006422  0.05689869  0.91280397    -0.08900
C1287       C  0.75147702  0.05758491  0.91853529     0.06700
C1288       C  0.73371964  0.04016254  0.90434651    -0.14000
S1289       S  0.78524667  0.99905758  0.85180714    -0.30900
H1290       H  0.81185179  0.03892314  0.88772003     0.10900
S1291       S  0.73623431  0.08062302  0.94324293    -0.28000
H1292       H  0.71186637  0.04060029  0.90894937     0.08200
H1293       H  0.64800831  0.00065781  0.81060464     0.26600
H1294       H  0.81287897  0.00752817  0.85338848     0.21400
H1295       H  0.75566302  0.10152975  0.93929976     0.26700
H1296       H  0.74364627  0.98578208  0.92193502     0.15600
C1297       C  0.73582916  0.75703782  0.86437282    -0.11700
C1298       C  0.72439811  0.77145444  0.88656647     0.14800
C1299       C  0.72635612  0.76024462  0.91307537     0.01700
C1300       C  0.73839442  0.73435945  0.91665862    -0.16100
C1301       C  0.74904648  0.71925351  0.89435869    -0.10900
C1302       C  0.74839800  0.73128258  0.86790662     0.08400
C1303       C  0.70853214  0.79685567  0.88079759     0.09500
S1304       S  0.71357582  0.77782422  0.94306388    -0.25200
H1305       H  0.73895568  0.72577339  0.93712217     0.19700
S1306       S  0.76391414  0.71465729  0.83849421    -0.30900
H1307       H  0.73439575  0.76591563  0.84409117     0.10000
C1308       C  0.72145168  0.82067037  0.87064051     0.03200
C1309       C  0.70523849  0.84237741  0.86081369    -0.13200
C1310       C  0.67635656  0.84061096  0.86048602    -0.08900
C1311       C  0.66348286  0.81749597  0.87238005     0.06700
C1312       C  0.67968676  0.79595146  0.88248692    -0.14000
S1313       S  0.75854833  0.82273186  0.86868265    -0.30900
H1314       H  0.71507555  0.85986450  0.85119678     0.10900
S1315       S  0.62672413  0.81253278  0.87164458    -0.28000
H1316       H  0.66971439  0.77756995  0.89012211     0.08200
H1317       H  0.75717308  0.73480340  0.81898574     0.26600
H1318       H  0.75987957  0.84831296  0.85536152     0.21400
H1319       H  0.62009446  0.84029782  0.87583615     0.26700
H1320       H  0.71727672  0.80456385  0.93284393     0.15600
C1321       C  0.77338403  0.85665331  0.74185467    -0.11700
C1322       C  0.78566413  0.87801194  0.72681960     0.14800
C1323       C  0.77210718  0.90360085  0.72526077     0.01700
C1324       C  0.74619432  0.90682911  0.73757566    -0.16100
C1325       C  0.73347248  0.88520198  0.75198634    -0.10900
C1326       C  0.74789960  0.86013080  0.75491916     0.08400
C1327       C  0.81141383  0.87195949  0.71138279     0.09500
S1328       S  0.78659365  0.93276429  0.70761235    -0.25200
H1329       H  0.73561112  0.92629909  0.73530438     0.19700
S1330       S  0.73541161  0.83208865  0.77560695    -0.30900
H1331       H  0.78374141  0.83697759  0.74332003     0.10000
C1332       C  0.83552131  0.86329533  0.72489978     0.03200
C1333       C  0.85721667  0.85191905  0.70959964    -0.13200
C1334       C  0.85547120  0.84937163  0.68101966    -0.08900
C1335       C  0.83251395  0.86044404  0.66727896     0.06700
C1336       C  0.81065377  0.87160557  0.68261419    -0.14000
S1337       S  0.83810396  0.86544238  0.76174660    -0.30900
H1338       H  0.87476185  0.84310226  0.72005708     0.10900
S1339       S  0.82951169  0.85729040  0.63053882    -0.28000
H1340       H  0.79211355  0.87832569  0.67232866     0.08200
H1341       H  0.72446789  0.84907156  0.79628766     0.26600
H1342       H  0.86534726  0.85579042  0.76371074     0.21400
H1343       H  0.80467216  0.87195777  0.62799083     0.26700
H1344       H  0.81430892  0.92550928  0.71173280     0.15600
C1345       C  0.76485172  0.79787344  0.52023300    -0.11700
C1346       C  0.79124466  0.80475731  0.51061584     0.14800
C1347       C  0.79382172  0.81668730  0.48429354     0.01700
C1348       C  0.77005266  0.82475491  0.47002294    -0.16100
C1349       C  0.74365528  0.82053329  0.48111872    -0.10900
C1350       C  0.74115666  0.80545468  0.50570772     0.08400
C1351       C  0.81488874  0.80239357  0.52996186     0.09500
S1352       S  0.82679462  0.82401477  0.46882206    -0.25200
H1353       H  0.77227602  0.83646659  0.45126479     0.19700
S1354       S  0.70812158  0.79751478  0.52070548    -0.30900
H1355       H  0.76260212  0.78811957  0.54006789     0.10000
C1356       C  0.82722452  0.82596639  0.54158132     0.03200
C1357       C  0.84756065  0.82297852  0.56183892    -0.13200
C1358       C  0.85539334  0.79696467  0.57134807    -0.08900
C1359       C  0.84353514  0.77339342  0.55925621     0.06700
C1360       C  0.82341693  0.77633975  0.53887098    -0.14000
S1361       S  0.81532334  0.85994442  0.53254074    -0.30900
H1362       H  0.85622431  0.84099075  0.57151506     0.10900
S1363       S  0.85286631  0.73901580  0.56939343    -0.28000
H1364       H  0.81396753  0.75817779  0.53021013     0.08200
H1365       H  0.69296124  0.80009796  0.49633991     0.26600
H1366       H  0.83401286  0.87465018  0.54885641     0.21400
H1367       H  0.88008185  0.74541705  0.57679157     0.26700
H1368       H  0.84167530  0.80402864  0.48338417     0.15600
C1369       C  0.56464409  0.78169181  0.47199893    -0.11700
C1370       C  0.55908506  0.76941052  0.44657369     0.14800
C1371       C  0.57681504  0.77532656  0.42418788     0.01700
C1372       C  0.59934144  0.79311240  0.42769055    -0.16100
C1373       C  0.60404567  0.80645228  0.45272919    -0.10900
C1374       C  0.58676225  0.80013138  0.47527733     0.08400
C1375       C  0.53345510  0.75256732  0.44332713     0.09500
S1376       S  0.57073071  0.76250255  0.39007093    -0.25200
H1377       H  0.61208196  0.79815775  0.41013114     0.19700
S1378       S  0.59290525  0.81549526  0.50839176    -0.30900
H1379       H  0.55114726  0.77728508  0.48913895     0.10000
C1380       C  0.53412221  0.72427241  0.43683657     0.03200
C1381       C  0.50971088  0.71081007  0.42875603    -0.13200
C1382       C  0.48456696  0.72505608  0.42714328    -0.08900
C1383       C  0.48350317  0.75252416  0.43651349     0.06700
C1384       C  0.50783187  0.76592276  0.44454047    -0.14000
S1385       S  0.56627804  0.70566212  0.43764909    -0.30900
H1386       H  0.51065410  0.68981713  0.42152371     0.10900
S1387       S  0.45123032  0.77110327  0.43653257    -0.28000
H1388       H  0.50718019  0.78742523  0.45014836     0.08200
H1389       H  0.57149947  0.80208500  0.52250426     0.26600
H1390       H  0.55546490  0.67998433  0.43009732     0.21400
H1391       H  0.46136537  0.79557898  0.44797220     0.26700
H1392       H  0.54182660  0.76298203  0.39167524     0.15600
C1393       C  0.79017782  0.00022257  0.37188059    -0.11700
C1394       C  0.79018515  0.97317012  0.36209151     0.14800
C1395       C  0.80542222  0.96647401  0.33837101     0.01700
C1396       C  0.82064794  0.98695919  0.32518757    -0.16100
C1397       C  0.82113257  0.01398466  0.33527309    -0.10900
C1398       C  0.80511031  0.02076919  0.35853855     0.08400
C1399       C  0.77327881  0.95285033  0.37681245     0.09500
S1400       S  0.80622702  0.93241065  0.32382446    -0.25200
H1401       H  0.83269141  0.98161619  0.30721414     0.19700
S1402       S  0.80159251  0.05537588  0.37130725    -0.30900
H1403       H  0.77794522  0.00545020  0.38976470     0.10000
C1404       C  0.78293036  0.94026977  0.40086992     0.03200
C1405       C  0.76516312  0.92344225  0.41602828    -0.13200
C1406       C  0.73784559  0.91909572  0.40766038    -0.08900
C1407       C  0.72845742  0.93147665  0.38317370     0.06700
C1408       C  0.74639255  0.94790531  0.36785913    -0.14000
S1409       S  0.81778938  0.94597061  0.41232694    -0.30900
H1410       H  0.77242923  0.91390992  0.43469787     0.10900
S1411       S  0.69336167  0.92912627  0.37157300    -0.28000
H1412       H  0.73897396  0.95796306  0.34949901     0.08200
H1413       H  0.80186538  0.06791398  0.34533320     0.26600
H1414       H  0.81646339  0.92891262  0.43554480     0.21400
H1415       H  0.68180190  0.93246891  0.39783547     0.26700
H1416       H  0.80075950  0.91793938  0.34811920     0.15600
C1417       C  0.56111430  0.91107236  0.37825675    -0.11700
C1418       C  0.56554455  0.93834691  0.37018359     0.14800
C1419       C  0.59243434  0.94924462  0.37108379     0.01700
C1420       C  0.61354910  0.93381779  0.38302201    -0.16100
C1421       C  0.60857298  0.90730560  0.39307381    -0.10900
C1422       C  0.58241427  0.89533890  0.38930644     0.08400
C1423       C  0.54115981  0.95586086  0.36517694     0.09500
S1424       S  0.60054405  0.98328378  0.35902313    -0.25200
H1425       H  0.63341829  0.94330794  0.38623358     0.19700
S1426       S  0.57400632  0.86148532  0.40170921    -0.30900
H1427       H  0.54051273  0.90256211  0.37758781     0.10000
C1428       C  0.52313953  0.95069172  0.34329787     0.03200
C1429       C  0.49873353  0.96586904  0.34126964    -0.13200
C1430       C  0.49179117  0.98604183  0.36077178    -0.08900
C1431       C  0.51045536  0.99196810  0.38204268     0.06700
C1432       C  0.53477741  0.97664316  0.38416440    -0.14000
S1433       S  0.53107901  0.92462395  0.31811333    -0.30900
H1434       H  0.48446098  0.96130236  0.32490717     0.10900
S1435       S  0.50469920  0.01898310  0.40667833    -0.28000
H1436       H  0.54869427  0.98066312  0.40099610     0.08200
H1437       H  0.60026255  0.85030576  0.39687160     0.26600
H1438       H  0.50738329  0.92822087  0.30201315     0.21400
H1439       H  0.49070717  0.03652274  0.38852064     0.26700
H1440       H  0.57912222  0.98473766  0.33976137     0.15600
C1441       C  0.66583785  0.86476860  0.60499551    -0.11700
C1442       C  0.63823936  0.86240293  0.61294194     0.14800
C1443       C  0.61747337  0.86031898  0.59320919     0.01700
C1444       C  0.62447162  0.86325022  0.56575794    -0.16100
C1445       C  0.65194183  0.86795390  0.55757721    -0.10900
C1446       C  0.67305682  0.86704229  0.57748256     0.08400
C1447       C  0.63178418  0.86651966  0.64179435     0.09500
S1448       S  0.58163819  0.85576199  0.60192479    -0.25200
H1449       H  0.60796462  0.86321355  0.55089770     0.19700
S1450       S  0.70931781  0.86921210  0.56965645    -0.30900
H1451       H  0.68176557  0.86587586  0.62046729     0.10000
C1452       C  0.63638604  0.84565849  0.66098858     0.03200
C1453       C  0.63537906  0.85217598  0.68874214    -0.13200
C1454       C  0.63059824  0.87931465  0.69735894    -0.08900
C1455       C  0.62409111  0.89979756  0.67803646     0.06700
C1456       C  0.62461635  0.89305846  0.65026475    -0.14000
S1457       S  0.64502092  0.81127062  0.65000770    -0.30900
H1458       H  0.64026097  0.83648914  0.70368323     0.10900
S1459       S  0.61574238  0.93446663  0.68842612    -0.28000
H1460       H  0.62098499  0.90876422  0.63498182     0.08200
H1461       H  0.70760007  0.85282462  0.54604561     0.26600
H1462       H  0.64717623  0.79971157  0.67631978     0.21400
H1463       H  0.61044406  0.94487876  0.66208785     0.26700
H1464       H  0.58619006  0.84225507  0.62695444     0.15600
C1465       C  0.45861020  0.28968505  0.06763610    -0.11700
C1466       C  0.45191756  0.26344970  0.05802174     0.14800
C1467       C  0.42472758  0.25850165  0.04890488     0.01700
C1468       C  0.40508550  0.27989002  0.04951336    -0.16100
C1469       C  0.41198768  0.30632565  0.05891382    -0.10900
C1470       C  0.43917268  0.31083761  0.06850105     0.08400
C1471       C  0.47319345  0.24156255  0.06138884     0.09500
S1472       S  0.41406373  0.22564463  0.03571979    -0.25200
H1473       H  0.38453876  0.27606897  0.04183525     0.19700
S1474       S  0.45016874  0.34263231  0.08382274    -0.30900
H1475       H  0.47908418  0.29347001  0.07558118     0.10000
C1476       C  0.49921009  0.24344875  0.04843398     0.03200
C1477       C  0.52165381  0.22836466  0.05878941    -0.13200
C1478       C  0.51843584  0.21097611  0.08149641    -0.08900
C1479       C  0.49165903  0.20665133  0.09215469     0.06700
C1480       C  0.46944334  0.22204619  0.08216564    -0.14000
S1481       S  0.50424549  0.26663034  0.02001366    -0.30900
H1482       H  0.54216247  0.23200886  0.05080517     0.10900
S1483       S  0.48524555  0.18457082  0.12112419    -0.28000
H1484       H  0.44957546  0.22039967  0.09221778     0.08200
H1485       H  0.42471167  0.34720287  0.09668411     0.26600
H1486       H  0.53138046  0.25847841  0.01385038     0.21400
H1487       H  0.50777447  0.16700853  0.11644863     0.26700
H1488       H  0.44034353  0.21698250  0.02713040     0.15600
C1489       C  0.69214525  0.20337422  0.03020412    -0.11700
C1490       C  0.69984027  0.17688249  0.02187135     0.14800
C1491       C  0.68473558  0.15409397  0.03188923     0.01700
C1492       C  0.66305264  0.15829939  0.05054575    -0.16100
C1493       C  0.65663761  0.18467565  0.06024014    -0.10900
C1494       C  0.67068455  0.20750504  0.04904382     0.08400
C1495       C  0.72551764  0.17347461  0.00548652     0.09500
S1496       S  0.69325016  0.11902506  0.02331585    -0.25200
H1497       H  0.65257629  0.14065386  0.05918562     0.19700
S1498       S  0.66251006  0.24239014  0.05849367    -0.30900
H1499       H  0.70348874  0.22093837  0.02254982     0.10000
C1500       C  0.72547151  0.16440983  0.97802457     0.03200
C1501       C  0.75052693  0.15691911  0.96536874    -0.13200
C1502       C  0.77542381  0.15784742  0.97991808    -0.08900
C1503       C  0.77560482  0.17013992  0.00614639     0.06700
C1504       C  0.75075867  0.17763144  0.01868076    -0.14000
S1505       S  0.69343124  0.16089038  0.95975865    -0.30900
H1506       H  0.75038389  0.14814688  0.94503169     0.10900
S1507       S  0.80690161  0.17494291  0.02536023    -0.28000
H1508       H  0.75100314  0.18537701  0.03949528     0.08200
H1509       H  0.63460237  0.23736187  0.06446386     0.26600
H1510       H  0.70496133  0.15160387  0.93494679     0.21400
H1511       H  0.82479977  0.17393677  0.00264858     0.26700
H1512       H  0.72184771  0.12281856  0.02107427     0.15600
C1513       C  0.52081703  0.11077027  0.21298208    -0.11700
C1514       C  0.49467614  0.12130243  0.21927265     0.14800
C1515       C  0.48651971  0.14680515  0.20829693     0.01700
C1516       C  0.50482671  0.16144014  0.19173557    -0.16100
C1517       C  0.53096821  0.15087693  0.18505505    -0.10900
C1518       C  0.53901249  0.12508152  0.19582652     0.08400
C1519       C  0.47718955  0.10607227  0.23884916     0.09500
S1520       S  0.45300880  0.16167668  0.21447556    -0.25200
H1521       H  0.49832796  0.18108527  0.18356566     0.19700
S1522       S  0.57281841  0.11075340  0.18941599    -0.30900
H1523       H  0.52706508  0.09144043  0.22201038     0.10000
C1524       C  0.46640481  0.08003683  0.23245264     0.03200
C1525       C  0.45037700  0.06618561  0.25193677    -0.13200
C1526       C  0.44518452  0.07764493  0.27789715    -0.08900
C1527       C  0.45684575  0.10349156  0.28443973     0.06700
C1528       C  0.47226882  0.11752262  0.26472351    -0.14000
S1529       S  0.47229167  0.06479649  0.19919374    -0.30900
H1530       H  0.44151825  0.04648079  0.24675321     0.10900
S1531       S  0.45440845  0.11906177  0.31788831    -0.28000
H1532       H  0.48119607  0.13725342  0.26982310     0.08200
H1533       H  0.56861409  0.08547528  0.20271207     0.26600
H1534       H  0.46074297  0.03900622  0.20520511     0.21400
H1535       H  0.45898751  0.09435189  0.33211055     0.26700
H1536       H  0.43889141  0.13663057  0.21717605     0.15600
C1537       C  0.67998212  0.12555928  0.21602734    -0.11700
C1538       C  0.70309970  0.11528511  0.20212673     0.14800
C1539       C  0.70213043  0.11225296  0.17331697     0.01700
C1540       C  0.67961379  0.12286328  0.15883693    -0.16100
C1541       C  0.65789642  0.13593773  0.17265883    -0.10900
C1542       C  0.65736991  0.13590324  0.20155167     0.08400
C1543       C  0.72896431  0.11191200  0.21784091     0.09500
S1544       S  0.72993553  0.09717577  0.15382260    -0.25200
H1545       H  0.68013469  0.12292126  0.13663703     0.19700
S1546       S  0.62879400  0.15110875  0.21992323    -0.30900
H1547       H  0.68058605  0.12738142  0.23812550     0.10000
C1548       C  0.75080290  0.13077278  0.21484835     0.03200
C1549       C  0.77468274  0.12751042  0.23055136    -0.13200
C1550       C  0.77722839  0.10599540  0.24956357    -0.08900
C1551       C  0.75463060  0.08802802  0.25356333     0.06700
C1552       C  0.73093065  0.09104033  0.23751570    -0.14000
S1553       S  0.74816028  0.15938349  0.19137948    -0.30900
H1554       H  0.79182860  0.14134444  0.22736429     0.10900
S1555       S  0.75432414  0.06146057  0.27930169    -0.28000
H1556       H  0.71375947  0.07716507  0.24054175     0.08200
H1557       H  0.63793127  0.14442021  0.24640732     0.26600
H1558       H  0.77438643  0.17052769  0.19630815     0.21400
H1559       H  0.77001773  0.07630595  0.29841404     0.26700
H1560       H  0.74060137  0.08121339  0.17531720     0.15600
C1561       C  0.64395604  0.26089676  0.26353847    -0.11700
C1562       C  0.62218048  0.27530374  0.27601672     0.14800
C1563       C  0.59639684  0.27612195  0.26284714     0.01700
C1564       C  0.59314047  0.26310181  0.23745803    -0.16100
C1565       C  0.61496507  0.24879156  0.22472632    -0.10900
C1566       C  0.64058886  0.24733309  0.23844870     0.08400
C1567       C  0.62772493  0.29031209  0.30196742     0.09500
S1568       S  0.56691477  0.29355604  0.27724464    -0.25200
H1569       H  0.57335102  0.26454819  0.22737307     0.19700
S1570       S  0.66965306  0.22807220  0.22566548    -0.30900
H1571       H  0.66383731  0.26016778  0.27353965     0.10000
C1572       C  0.63565589  0.27624092  0.32592298     0.03200
C1573       C  0.64599190  0.29111992  0.34822795    -0.13200
C1574       C  0.64836589  0.31983427  0.34721970    -0.08900
C1575       C  0.63797172  0.33408566  0.32431114     0.06700
C1576       C  0.62779536  0.31916599  0.30185796    -0.14000
S1577       S  0.63391476  0.23922495  0.32759740    -0.30900
H1578       H  0.65421920  0.28025102  0.36574830     0.10900
S1579       S  0.64069811  0.37101561  0.32224352    -0.28000
H1580       H  0.62152482  0.32987764  0.28347113     0.08200
H1581       H  0.65380169  0.20610247  0.21586509     0.26600
H1582       H  0.64212173  0.23667498  0.35508665     0.21400
H1583       H  0.62715323  0.37403679  0.29699967     0.26700
H1584       H  0.57415363  0.28961442  0.30482385     0.15600
C1585       C  0.69332491  0.47059284  0.25084924    -0.11700
C1586       C  0.69088204  0.48268967  0.27682391     0.14800
C1587       C  0.68213859  0.51033407  0.27876422     0.01700
C1588       C  0.67253261  0.52390140  0.25528557    -0.16100
C1589       C  0.67149350  0.51038739  0.22993018    -0.10900
C1590       C  0.68388725  0.48427002  0.22737751     0.08400
C1591       C  0.69442904  0.46487269  0.30131477     0.09500
S1592       S  0.68073751  0.52855115  0.31089539    -0.25200
H1593       H  0.66378602  0.54424438  0.25732956     0.19700
S1594       S  0.68614995  0.46781587  0.19426613    -0.30900
H1595       H  0.70091242  0.44973140  0.24924588     0.10000
C1596       C  0.67149823  0.45598238  0.31686842     0.03200
C1597       C  0.67533435  0.43726115  0.33844905    -0.13200
C1598       C  0.70146951  0.42649418  0.34424419    -0.08900
C1599       C  0.72443800  0.43582743  0.32898577     0.06700
C1600       C  0.72067755  0.45475168  0.30768390    -0.14000
S1601       S  0.63704467  0.46664059  0.30779672    -0.30900
H1602       H  0.65770948  0.42968361  0.34978717     0.10900
S1603       S  0.75900631  0.42406728  0.33559118    -0.28000
H1604       H  0.73829343  0.46135742  0.29570211     0.08200
H1605       H  0.69870729  0.44341937  0.20331873     0.26600
H1606       H  0.62300996  0.45011272  0.32689568     0.21400
H1607       H  0.75503365  0.42008372  0.36387318     0.26700
H1608       H  0.70119261  0.51297071  0.32403979     0.15600
C1609       C  0.69492213  0.56489043  0.05044595    -0.11700
C1610       C  0.72102018  0.55373779  0.05581672     0.14800
C1611       C  0.72582903  0.54171575  0.08177217     0.01700
C1612       C  0.70452785  0.54094859  0.10145933    -0.16100
C1613       C  0.67811421  0.55123209  0.09560761    -0.10900
C1614       C  0.67347756  0.56357304  0.06977371     0.08400
C1615       C  0.74281983  0.55685725  0.03428358     0.09500
S1616       S  0.75830278  0.52617310  0.09064328    -0.25200
H1617       H  0.70827520  0.53121619  0.12105700     0.19700
S1618       S  0.64048635  0.57864226  0.06147222    -0.30900
H1619       H  0.69143315  0.57479161  0.03089977     0.10000
C1620       C  0.73970193  0.54543940  0.00784604     0.03200
C1621       C  0.75695918  0.55416678  0.98628832    -0.13200
C1622       C  0.77753372  0.57392171  0.99057191    -0.08900
C1623       C  0.78238583  0.58309940  0.01763250     0.06700
C1624       C  0.76497988  0.57466080  0.03906490    -0.14000
S1625       S  0.71260695  0.52100738  0.00115494    -0.30900
H1626       H  0.75280408  0.54747983  0.96555959     0.10900
S1627       S  0.80815924  0.60850813  0.02542388    -0.28000
H1628       H  0.76762765  0.58349816  0.05925499     0.08200
H1629       H  0.64710672  0.58718009  0.03472680     0.26600
H1630       H  0.71968124  0.51575342  0.97367762     0.21400
H1631       H  0.82562873  0.60209410  0.00331092     0.26700
H1632       H  0.76571444  0.51853486  0.06383464     0.15600
C1633       C  0.52812923  0.63937686  0.30950594    -0.11700
C1634       C  0.51717988  0.61683180  0.29545805     0.14800
C1635       C  0.48990341  0.60840917  0.30090080     0.01700
C1636       C  0.47367057  0.62369892  0.31905669    -0.16100
C1637       C  0.48417884  0.64707400  0.33216397    -0.10900
C1638       C  0.51204208  0.65442837  0.32797902     0.08400
C1639       C  0.53445874  0.60322151  0.27456954     0.09500
S1640       S  0.47425787  0.57915258  0.28449921    -0.25200
H1641       H  0.45233748  0.61790560  0.32215432     0.19700
S1642       S  0.52829287  0.68261081  0.34563446    -0.30900
H1643       H  0.54925593  0.64550899  0.30573190     0.10000
C1644       C  0.53062843  0.60821841  0.24639799     0.03200
C1645       C  0.54770874  0.59498006  0.22727777    -0.13200
C1646       C  0.56825498  0.57665515  0.23585356    -0.08900
C1647       C  0.57221830  0.57201064  0.26414520     0.06700
C1648       C  0.55532221  0.58536879  0.28317305    -0.14000
S1649       S  0.50402673  0.63143322  0.23486813    -0.30900
H1650       H  0.54467811  0.59836385  0.20557507     0.10900
S1651       S  0.59877833  0.54975227  0.27724599    -0.28000
H1652       H  0.55838990  0.58180223  0.30486530     0.08200
H1653       H  0.51244115  0.68024006  0.36968670     0.26600
H1654       H  0.50810160  0.62725157  0.20662630     0.21400
H1655       H  0.61732760  0.55474412  0.25572440     0.26700
H1656       H  0.49868119  0.56419419  0.28032409     0.15600
C1657       C  0.52610390  0.61016763  0.08474536    -0.11700
C1658       C  0.54120376  0.62254433  0.06360430     0.14800
C1659       C  0.56959207  0.62770952  0.06739422     0.01700
C1660       C  0.58295030  0.61682795  0.09035386    -0.16100
C1661       C  0.56846824  0.60081330  0.10938390    -0.10900
C1662       C  0.53944321  0.59947855  0.10773149     0.08400
C1663       C  0.52795531  0.62544126  0.03647706     0.09500
S1664       S  0.59033261  0.64532192  0.04223090    -0.25200
H1665       H  0.60514118  0.61844265  0.09179112     0.19700
S1666       S  0.51878865  0.58195450  0.13306740    -0.30900
H1667       H  0.50417583  0.60687471  0.08233985     0.10000
C1668       C  0.53461087  0.60728783  0.01493857     0.03200
C1669       C  0.52217056  0.61071229  0.98933134    -0.13200
C1670       C  0.50281713  0.63168669  0.98472640    -0.08900
C1671       C  0.49491059  0.64882669  0.00691257     0.06700
C1672       C  0.50769621  0.64554294  0.03250637    -0.14000
S1673       S  0.55871319  0.57942073  0.02014561    -0.30900
H1674       H  0.52812232  0.59736777  0.97258508     0.10900
S1675       S  0.46794540  0.67422715  0.00330517    -0.28000
H1676       H  0.50210445  0.65873779  0.04949441     0.08200
H1677       H  0.53835434  0.58348990  0.15419650     0.26600
H1678       H  0.55685982  0.56805127  0.99373225     0.21400
H1679       H  0.46733612  0.68287782  0.03079368     0.26700
H1680       H  0.56860109  0.66024969  0.03042440     0.15600
C1681       C  0.62904581  0.38868590  0.14855509    -0.11700
C1682       C  0.62819271  0.38162224  0.12079309     0.14800
C1683       C  0.62702286  0.40212909  0.10065486     0.01700
C1684       C  0.62457882  0.42942579  0.10877380    -0.16100
C1685       C  0.62314755  0.43659072  0.13668272    -0.10900
C1686       C  0.62659423  0.41599501  0.15686598     0.08400
C1687       C  0.62461127  0.35259863  0.11423362     0.09500
S1688       S  0.62689870  0.39457736  0.06449581    -0.25200
H1689       H  0.62228257  0.44497454  0.09306838     0.19700
S1690       S  0.62726666  0.42372963  0.19314209    -0.30900
H1691       H  0.63022741  0.37249904  0.16372776     0.10000
C1692       C  0.64668440  0.33417197  0.11640702     0.03200
C1693       C  0.64117693  0.30610538  0.11719726    -0.13200
C1694       C  0.61392183  0.29634117  0.11628901    -0.08900
C1695       C  0.59220285  0.31486648  0.11092507     0.06700
C1696       C  0.59777441  0.34292493  0.11029473    -0.14000
S1697       S  0.68150709  0.34655972  0.12022195    -0.30900
H1698       H  0.65800197  0.29196850  0.12081378     0.10900
S1699       S  0.55709958  0.30416067  0.10548381    -0.28000
H1700       H  0.58092564  0.35738764  0.10813208     0.08200
H1701       H  0.63186770  0.39682287  0.20256474     0.26600
H1702       H  0.69447277  0.32071584  0.11947971     0.21400
H1703       H  0.56413385  0.27894436  0.09319948     0.26700
H1704       H  0.64133977  0.36960786  0.06634273     0.15600
C1705       C  0.41890044  0.45592236  0.12742145    -0.11700
C1706       C  0.44092173  0.44123650  0.13874730     0.14800
C1707       C  0.43853634  0.41247935  0.14204006     0.01700
C1708       C  0.41606947  0.39873624  0.13044015    -0.16100
C1709       C  0.39635404  0.41314158  0.11520768    -0.10900
C1710       C  0.39651135  0.44214951  0.11589320     0.08400
C1711       C  0.46749036  0.45572312  0.14234196     0.09500
S1712       S  0.46489233  0.39198327  0.15810753    -0.25200
H1713       H  0.41549231  0.37656474  0.13111135     0.19700
S1714       S  0.36980048  0.46245535  0.10014610    -0.30900
H1715       H  0.42015590  0.47806714  0.12560861     0.10000
C1716       C  0.48915622  0.45187049  0.12341529     0.03200
C1717       C  0.51386724  0.46623790  0.12683819    -0.13200
C1718       C  0.51743044  0.48498382  0.14847419    -0.08900
C1719       C  0.49502219  0.48983333  0.16658107     0.06700
C1720       C  0.47050602  0.47493710  0.16349333    -0.14000
S1721       S  0.48516878  0.42908535  0.09442326    -0.30900
H1722       H  0.53071993  0.46241212  0.11276632     0.10900
S1723       S  0.49579217  0.51543987  0.19323041    -0.28000
H1724       H  0.45347968  0.47862279  0.17743744     0.08200
H1725       H  0.34963592  0.44173224  0.10083389     0.26600
H1726       H  0.51083306  0.43443244  0.08209440     0.21400
H1727       H  0.51058436  0.53476719  0.17763489     0.26700
H1728       H  0.47601079  0.41325618  0.17406251     0.15600
C1729       C  0.49464645  0.24428893  0.69336618    -0.11700
C1730       C  0.50423507  0.27054528  0.68637253     0.14800
C1731       C  0.53026929  0.27298385  0.67350153     0.01700
C1732       C  0.54480610  0.24920519  0.66570313    -0.16100
C1733       C  0.53394912  0.22288970  0.67044452    -0.10900
C1734       C  0.50916262  0.22057334  0.68558967     0.08400
C1735       C  0.48497494  0.29429161  0.68929330     0.09500
S1736       S  0.54473114  0.30575963  0.66412842    -0.25200
H1737       H  0.56344250  0.25133922  0.65359836     0.19700
S1738       S  0.49378428  0.18775162  0.69329560    -0.30900
H1739       H  0.47482561  0.24218512  0.70342479     0.10000
C1740       C  0.46904525  0.30341260  0.66690252     0.03200
C1741       C  0.44972945  0.32467714  0.67060821    -0.13200
C1742       C  0.44561254  0.33683212  0.69635782    -0.08900
C1743       C  0.46172712  0.32785376  0.71872684     0.06700
C1744       C  0.48113457  0.30670265  0.71498862    -0.14000
S1745       S  0.47211758  0.28677597  0.63394716    -0.30900
H1746       H  0.43685174  0.33103891  0.65368562     0.10900
S1747       S  0.45775453  0.34191096  0.75271905    -0.28000
H1748       H  0.49307320  0.29959979  0.73231054     0.08200
H1749       H  0.51829994  0.17244039  0.69121544     0.26600
H1750       H  0.45056375  0.30104980  0.62103367     0.21400
H1751       H  0.44788137  0.36778689  0.74453968     0.26700
H1752       H  0.53128931  0.32110614  0.68458336     0.15600
C1753       C  0.56363243  0.99816042  0.73700383    -0.11700
C1754       C  0.57238572  0.02384610  0.74670836     0.14800
C1755       C  0.58370400  0.02541034  0.77336653     0.01700
C1756       C  0.58937555  0.00111629  0.78789964    -0.16100
C1757       C  0.58393710  0.97522907  0.77646658    -0.10900
C1758       C  0.56903622  0.97401037  0.75169820     0.08400
C1759       C  0.57156181  0.04775687  0.72750103     0.09500
S1760       S  0.59311468  0.05752991  0.78914722    -0.25200
H1761       H  0.60027884  0.00240306  0.80714868     0.19700
S1762       S  0.55850947  0.94180940  0.73683945    -0.30900
H1763       H  0.55403034  0.99670169  0.71705347     0.10000
C1764       C  0.59594695  0.05957686  0.71675884     0.03200
C1765       C  0.59421076  0.08034384  0.69674435    -0.13200
C1766       C  0.56867934  0.08902407  0.68652831    -0.08900
C1767       C  0.54433228  0.07748868  0.69755960     0.06700
C1768       C  0.54602460  0.05706536  0.71777900    -0.14000
S1769       S  0.62935601  0.04651007  0.72652646    -0.30900
H1770       H  0.61282997  0.08870083  0.68778725     0.10900
S1771       S  0.51048554  0.08753617  0.68616436    -0.28000
H1772       H  0.52725091  0.04796159  0.72566324     0.08200
H1773       H  0.56024028  0.92649810  0.76121970     0.26600
H1774       H  0.64516472  0.06455402  0.71040211     0.21400
H1775       H  0.51762407  0.11462099  0.67913012     0.26700
H1776       H  0.57496119  0.07404054  0.77396417     0.15600
C1777       C  0.62848279  0.28794877  0.49564653    -0.11700
C1778       C  0.64107078  0.28404577  0.52112412     0.14800
C1779       C  0.66663951  0.29646399  0.52647308     0.01700
C1780       C  0.67971481  0.31142856  0.50579060    -0.16100
C1781       C  0.66778634  0.31450420  0.47971428    -0.10900
C1782       C  0.64156485  0.30277409  0.47482266     0.08400
C1783       C  0.62855816  0.26419971  0.54023648     0.09500
S1784       S  0.68382841  0.29348933  0.55903194    -0.25200
H1785       H  0.69948419  0.32071750  0.51016661     0.19700
S1786       S  0.62446213  0.30405166  0.44213263    -0.30900
H1787       H  0.60889767  0.27815643  0.49151295     0.10000
C1788       C  0.60507202  0.27087105  0.55581059     0.03200
C1789       C  0.59238030  0.25044061  0.57160518    -0.13200
C1790       C  0.60255652  0.22337834  0.57183760    -0.08900
C1791       C  0.62627164  0.21688152  0.55621323     0.06700
C1792       C  0.63923678  0.23746645  0.54097956    -0.14000
S1793       S  0.59138944  0.30537543  0.55554664    -0.30900
H1794       H  0.57431948  0.25548013  0.58369161     0.10900
S1795       S  0.63972690  0.18248024  0.55303044    -0.28000
H1796       H  0.65707701  0.23234112  0.52856667     0.08200
H1797       H  0.64818111  0.29705978  0.42698355     0.26600
H1798       H  0.56869090  0.30026520  0.57278981     0.21400
H1799       H  0.61376731  0.16978228  0.55146051     0.26700
H1800       H  0.65984972  0.29020099  0.57491063     0.15600
C1801       C  0.62923697  0.01268890  0.51759826    -0.11700
C1802       C  0.65258350  0.02554025  0.52853896     0.14800
C1803       C  0.67851920  0.01298516  0.52510674     0.01700
C1804       C  0.68035226  0.98728254  0.51221203    -0.16100
C1805       C  0.65682383  0.97360343  0.50220014    -0.10900
C1806       C  0.63097978  0.98712094  0.50429107     0.08400
C1807       C  0.64844394  0.05079404  0.54523877     0.09500
S1808       S  0.70991154  0.02850021  0.53717279    -0.25200
H1809       H  0.70040041  0.97760572  0.51065913     0.19700
S1810       S  0.59997604  0.97251994  0.48996792    -0.30900
H1811       H  0.60940514  0.02259395  0.52010817     0.10000
C1812       C  0.64006006  0.07569687  0.53315314     0.03200
C1813       C  0.63004224  0.09701248  0.54983474    -0.13200
C1814       C  0.62797477  0.09389237  0.57839860    -0.08900
C1815       C  0.63900068  0.06999303  0.59059650     0.06700
C1816       C  0.64907355  0.04871798  0.57391824    -0.14000
S1817       S  0.64012805  0.07951836  0.49636430    -0.30900
H1818       H  0.62120618  0.11511775  0.54041717     0.10900
S1819       S  0.63698678  0.06379675  0.62694524    -0.28000
H1820       H  0.65559954  0.02963349  0.58330672     0.08200
H1821       H  0.58204505  0.99423308  0.49668770     0.26600
H1822       H  0.63159769  0.10713562  0.49586227     0.21400
H1823       H  0.64053675  0.09138534  0.63453357     0.26700
H1824       H  0.70086126  0.05585394  0.53506832     0.15600
C1825       C  0.44246513  0.12516304  0.44756979    -0.11700
C1826       C  0.47124580  0.12507722  0.44446209     0.14800
C1827       C  0.48279522  0.11584673  0.41952562     0.01700
C1828       C  0.46568838  0.10439046  0.39956269    -0.16100
C1829       C  0.43711122  0.10232820  0.40363464    -0.10900
C1830       C  0.42530047  0.11408636  0.42737431     0.08400
C1831       C  0.48845860  0.13014933  0.46904558     0.09500
S1832       S  0.51935791  0.11615059  0.41290636    -0.25200
H1833       H  0.47500792  0.09502393  0.38163864     0.19700
S1834       S  0.38900065  0.11185262  0.43488240    -0.30900
H1835       H  0.43342689  0.13210669  0.46669293     0.10000
C1836       C  0.48882405  0.15575598  0.48236910     0.03200
C1837       C  0.50256480  0.15836503  0.50747657    -0.13200
C1838       C  0.51604670  0.13584568  0.51972241    -0.08900
C1839       C  0.51718867  0.11062966  0.50530559     0.06700
C1840       C  0.50314078  0.10804978  0.48034372    -0.14000
S1841       S  0.47165228  0.18506170  0.46745644    -0.30900
H1842       H  0.50184664  0.17785339  0.51811103     0.10900
S1843       S  0.53675540  0.08170428  0.51802132    -0.28000
H1844       H  0.50296931  0.08849497  0.46978952     0.08200
H1845       H  0.38044366  0.11519522  0.40763373     0.26600
H1846       H  0.47875387  0.20410278  0.48790287     0.21400
H1847       H  0.53204263  0.06397216  0.49578635     0.26700
H1848       H  0.52531409  0.13829018  0.43039769     0.15600
C1849       C  0.29803707  0.02500080  0.44434630    -0.11700
C1850       C  0.28743397  0.05086006  0.45133519     0.14800
C1851       C  0.29579883  0.07418754  0.43612871     0.01700
C1852       C  0.31531295  0.07123929  0.41510076    -0.16100
C1853       C  0.32722271  0.04563392  0.40937328    -0.10900
C1854       C  0.31757611  0.02212228  0.42337430     0.08400
C1855       C  0.27078939  0.05351638  0.47667866     0.09500
S1856       S  0.28366021  0.10849045  0.44345801    -0.25200
H1857       H  0.32265331  0.08935002  0.40444559     0.19700
S1858       S  0.32975735  0.98799715  0.41559969    -0.30900
H1859       H  0.29160626  0.00705782  0.45582486     0.10000
C1860       C  0.24224956  0.05887753  0.47630887     0.03200
C1861       C  0.22893463  0.06727384  0.50058551    -0.13200
C1862       C  0.24382162  0.07033721  0.52500910    -0.08900
C1863       C  0.27169713  0.06189559  0.52577218     0.06700
C1864       C  0.28484011  0.05366403  0.50165853    -0.14000
S1865       S  0.22337728  0.05691057  0.44462033    -0.30900
H1866       H  0.20767539  0.07398314  0.49992129     0.10900
S1867       S  0.29233037  0.06385728  0.55642634    -0.28000
H1868       H  0.30668714  0.04906365  0.50205117     0.08200
H1869       H  0.33497574  0.99317112  0.38770298     0.26600
H1870       H  0.19716673  0.06155478  0.45611364     0.21400
H1871       H  0.27012849  0.06253911  0.57498152     0.26700
H1872       H  0.28065972  0.10527950  0.47189984     0.15600
C1873       C  0.18729950  0.96835903  0.72415319    -0.11700
C1874       C  0.19593465  0.99583539  0.72587512     0.14800
C1875       C  0.19721694  0.00841186  0.75195770     0.01700
C1876       C  0.18942453  0.99361966  0.77533770    -0.16100
C1877       C  0.17903621  0.96675490  0.77353298    -0.10900
C1878       C  0.17889560  0.95374962  0.74761052     0.08400
C1879       C  0.20099021  0.01185215  0.70029685     0.09500
S1880       S  0.20582710  0.04415988  0.75663113    -0.25200
H1881       H  0.18877839  0.00418919  0.79488361     0.19700
S1882       S  0.16493382  0.91987892  0.74274293    -0.30900
H1883       H  0.18597559  0.95860904  0.70424918     0.10000
C1884       C  0.22717660  0.02259608  0.69383363     0.03200
C1885       C  0.22974085  0.04234525  0.67297042    -0.13200
C1886       C  0.20678395  0.05103971  0.65779936    -0.08900
C1887       C  0.18097464  0.03857935  0.66277041     0.06700
C1888       C  0.17836332  0.01916706  0.68398177    -0.14000
S1889       S  0.25716904  0.01173560  0.71272697    -0.30900
H1890       H  0.24954825  0.05172194  0.66897851     0.10900
S1891       S  0.15073358  0.04927652  0.64409534    -0.28000
H1892       H  0.15831382  0.01081826  0.68898338     0.08200
H1893       H  0.17658010  0.90899256  0.76671079     0.26600
H1894       H  0.27652215  0.02713430  0.69771924     0.21400
H1895       H  0.13214067  0.03100311  0.65660509     0.26700
H1896       H  0.19291076  0.05369129  0.73271667     0.15600
C1897       C  0.10266267  0.21763823  0.46476092    -0.11700
C1898       C  0.12590459  0.22726541  0.47856081     0.14800
C1899       C  0.13520802  0.25434427  0.47416494     0.01700
C1900       C  0.12070252  0.27138490  0.45624395    -0.16100
C1901       C  0.09697467  0.26196313  0.44289402    -0.10900
C1902       C  0.08830795  0.23452041  0.44672536     0.08400
C1903       C  0.14075676  0.20787079  0.49614917     0.09500
S1904       S  0.16519759  0.26835137  0.49080798    -0.25200
H1905       H  0.12749277  0.29238225  0.45334037     0.19700
S1906       S  0.05998029  0.21936317  0.42831973    -0.30900
H1907       H  0.09602043  0.19658960  0.46766879     0.10000
C1908       C  0.13126248  0.20161701  0.52269671     0.03200
C1909       C  0.14585928  0.18263181  0.53856409    -0.13200
C1910       C  0.16963754  0.16986138  0.52821172    -0.08900
C1911       C  0.17835884  0.17540475  0.50110305     0.06700
C1912       C  0.16401691  0.19462465  0.48550992    -0.14000
S1913       S  0.10127161  0.21867244  0.53664725    -0.30900
H1914       H  0.13940063  0.17851123  0.55942017     0.10900
S1915       S  0.20711680  0.15816181  0.48501558    -0.28000
H1916       H  0.17077881  0.19905360  0.46478962     0.08200
H1917       H  0.06461102  0.23409582  0.40397728     0.26600
H1918       H  0.10105848  0.20494666  0.56200372     0.21400
H1919       H  0.20354180  0.13312713  0.49897372     0.26700
H1920       H  0.16392092  0.25191120  0.51442675     0.15600
C1921       C  0.13199214  0.23114941  0.72065299    -0.11700
C1922       C  0.11336561  0.21026762  0.71359318     0.14800
C1923       C  0.09008221  0.20569145  0.73032485     0.01700
C1924       C  0.08687327  0.22082247  0.75445621    -0.16100
C1925       C  0.10635062  0.24061921  0.76234215    -0.10900
C1926       C  0.12854439  0.24658716  0.74459065     0.08400
C1927       C  0.12131177  0.19113222  0.69134744     0.09500
S1928       S  0.06446906  0.18004468  0.72265849    -0.25200
H1929       H  0.06963521  0.21616458  0.76783423     0.19700
S1930       S  0.15314467  0.27340892  0.75137237    -0.30900
H1931       H  0.14994531  0.23478247  0.70790585     0.10000
C1932       C  0.12635951  0.20041338  0.66442789     0.03200
C1933       C  0.14040531  0.18324588  0.64600896    -0.13200
C1934       C  0.14905932  0.15700009  0.65403180    -0.08900
C1935       C  0.14161880  0.14674970  0.67994700     0.06700
C1936       C  0.12784161  0.16395538  0.69843748    -0.14000
S1937       S  0.11617208  0.23452299  0.65402485    -0.30900
H1938       H  0.14641027  0.19092780  0.62604093     0.10900
S1939       S  0.15217656  0.11273939  0.69039811    -0.28000
H1940       H  0.12394725  0.15693190  0.71913685     0.08200
H1941       H  0.13453184  0.29043011  0.76555792     0.26600
H1942       H  0.12500579  0.23236814  0.62662453     0.21400
H1943       H  0.13800097  0.11254758  0.71558542     0.26700
H1944       H  0.06854737  0.18026846  0.69412558     0.15600
C1945       C  0.42028372  0.09668627  0.61748733    -0.11700
C1946       C  0.40435739  0.11742941  0.62945152     0.14800
C1947       C  0.41697513  0.14110390  0.64023009     0.01700
C1948       C  0.44513168  0.14477486  0.63643835    -0.16100
C1949       C  0.46079527  0.12495778  0.62263284    -0.10900
C1950       C  0.44855966  0.10023411  0.61382822     0.08400
C1951       C  0.37486727  0.11715654  0.62394202     0.09500
S1952       S  0.39778367  0.16841824  0.65645921    -0.25200
H1953       H  0.45472056  0.16359511  0.64341941     0.19700
S1954       S  0.46794411  0.07479754  0.59479717    -0.30900
H1955       H  0.41012613  0.07890179  0.60886603     0.10000
C1956       C  0.36458751  0.13193893  0.60149951     0.03200
C1957       C  0.33634724  0.13283032  0.59730051    -0.13200
C1958       C  0.31805633  0.11877486  0.61476208    -0.08900
C1959       C  0.32885549  0.10183589  0.63578171     0.06700
C1960       C  0.35721289  0.10162595  0.64043421    -0.14000
S1961       S  0.38741391  0.15011681  0.57838953    -0.30900
H1962       H  0.32858169  0.14545416  0.58080083     0.10900
S1963       S  0.30805395  0.07958855  0.65684556    -0.28000
H1964       H  0.36559645  0.08935250  0.65694719     0.08200
H1965       H  0.44678428  0.05520541  0.59286111     0.26600
H1966       H  0.36745666  0.15726788  0.55882214     0.21400
H1967       H  0.29128885  0.07087884  0.63504823     0.26700
H1968       H  0.37565068  0.15200778  0.66521881     0.15600
C1969       C  0.29117385  0.31650916  0.63990043    -0.11700
C1970       C  0.30610778  0.29535370  0.62724827     0.14800
C1971       C  0.33469168  0.29882754  0.62263726     0.01700
C1972       C  0.34822808  0.32141035  0.63425119    -0.16100
C1973       C  0.33362084  0.34082774  0.64980288    -0.10900
C1974       C  0.30458765  0.33930538  0.65094808     0.08400
C1975       C  0.29196631  0.26871157  0.62292860     0.09500
S1976       S  0.35525230  0.27409322  0.60411300    -0.25200
H1977       H  0.37049610  0.32253146  0.63310028     0.19700
S1978       S  0.28385214  0.36476790  0.66829995    -0.30900
H1979       H  0.26914214  0.31438022  0.64283298     0.10000
C1980       C  0.29816542  0.24574612  0.63942025     0.03200
C1981       C  0.28347649  0.22128718  0.63584743    -0.13200
C1982       C  0.26249181  0.21908817  0.61622500    -0.08900
C1983       C  0.25568033  0.24243149  0.60027793     0.06700
C1984       C  0.27049498  0.26696538  0.60387067    -0.14000
S1985       S  0.32414222  0.24771625  0.66580003    -0.30900
H1986       H  0.28878264  0.20354457  0.64811040     0.10900
S1987       S  0.22750370  0.24166327  0.57617068    -0.28000
H1988       H  0.26535574  0.28496155  0.59190563     0.08200
H1989       H  0.30301441  0.38627543  0.66571972     0.26600
H1990       H  0.32429077  0.21966946  0.67268976     0.21400
H1991       H  0.22965437  0.26906361  0.56731371     0.26700
H1992       H  0.33344218  0.26290799  0.58891327     0.15600
C1993       C  0.04401695  0.42411959  0.29071134    -0.11700
C1994       C  0.07038015  0.43056222  0.28078345     0.14800
C1995       C  0.09324816  0.41523134  0.29040007     0.01700
C1996       C  0.08920025  0.39411631  0.30954344    -0.16100
C1997       C  0.06304138  0.38883072  0.32056437    -0.10900
C1998       C  0.04012359  0.40356460  0.31041203     0.08400
C1999       C  0.07368576  0.45524394  0.26304892     0.09500
S2000       S  0.12838197  0.42319003  0.28125479    -0.25200
H2001       H  0.10694993  0.38336527  0.31765660     0.19700
S2002       S  0.00546139  0.39756445  0.32237148    -0.30900
H2003       H  0.02639801  0.43577996  0.28362722     0.10000
C2004       C  0.08497069  0.45391472  0.23636742     0.03200
C2005       C  0.09286862  0.47834254  0.22306280    -0.13200
C2006       C  0.08909974  0.50397640  0.23574104    -0.08900
C2007       C  0.07448727  0.50528395  0.26074897     0.06700
C2008       C  0.06718679  0.48101190  0.27423984    -0.14000
S2009       S  0.09048591  0.42116453  0.21987736    -0.30900
H2010       H  0.10416664  0.47732748  0.20391811     0.10900
S2011       S  0.06668897  0.53744499  0.27744244    -0.28000
H2012       H  0.05774343  0.48224795  0.29435634     0.08200
H2013       H  0.00942296  0.36955790  0.32825381     0.26600
H2014       H  0.10149792  0.43160257  0.19530757     0.21400
H2015       H  0.06897268  0.55381413  0.25379736     0.26700
H2016       H  0.12469645  0.45179165  0.27984139     0.15600
C2017       C  0.04066061  0.67650043  0.22458426    -0.11700
C2018       C  0.03151399  0.68301244  0.19810696     0.14800
C2019       C  0.04138930  0.66714964  0.17577139     0.01700
C2020       C  0.05994097  0.64547022  0.18037027    -0.16100
C2021       C  0.07010005  0.63984260  0.20666347    -0.10900
C2022       C  0.05963460  0.65515115  0.22909005     0.08400
C2023       C  0.01367192  0.70773610  0.19402611     0.09500
S2024       S  0.03288372  0.67479674  0.14063740    -0.25200
H2025       H  0.06814662  0.63429230  0.16295327     0.19700
S2026       S  0.06987888  0.64852067  0.26395248    -0.30900
H2027       H  0.03329724  0.68846024  0.24184872     0.10000
C2028       C  0.98653768  0.70594709  0.18379912     0.03200
C2029       C  0.97289693  0.72993879  0.17490069    -0.13200
C2030       C  0.98574095  0.75572669  0.17640215    -0.08900
C2031       C  0.01157306  0.75767111  0.18955344     0.06700
C2032       C  0.02523568  0.73379776  0.19810557    -0.14000
S2033       S  0.96993092  0.67297314  0.18068953    -0.30900
H2034       H  0.95328870  0.72829581  0.16454483     0.10900
S2035       S  0.02931042  0.78997995  0.19345442    -0.28000
H2036       H  0.04580839  0.73545737  0.20647062     0.08200
H2037       H  0.07532112  0.62039580  0.26009748     0.26600
H2038       H  0.94442025  0.68297109  0.17141585     0.21400
H2039       H  0.00562550  0.80659099  0.19201310     0.26700
H2040       H  0.03161556  0.70345689  0.14383294     0.15600
C2041       C  0.19675493  0.47878476  0.12929344    -0.11700
C2042       C  0.22370704  0.47285389  0.13768250     0.14800
C2043       C  0.23409332  0.48534489  0.16159790     0.01700
C2044       C  0.21724277  0.50315067  0.17669746    -0.16100
C2045       C  0.19027212  0.50933676  0.16828809    -0.10900
C2046       C  0.17983406  0.49653621  0.14447828     0.08400
C2047       C  0.24067940  0.45405869  0.12076547     0.09500
S2048       S  0.26860052  0.47951140  0.17397172    -0.25200
H2049       H  0.22550352  0.51272352  0.19494581     0.19700
S2050       S  0.14476976  0.50072973  0.13323838    -0.30900
H2051       H  0.18867905  0.46907299  0.11103939     0.10000
C2052       C  0.24529916  0.42649349  0.12830189     0.03200
C2053       C  0.26276408  0.41000519  0.11214154    -0.13200
C2054       C  0.27573495  0.42060587  0.08861081    -0.08900
C2055       C  0.27116731  0.44843384  0.08147057     0.06700
C2056       C  0.25332790  0.46457133  0.09722259    -0.14000
S2057       S  0.22883571  0.41238930  0.15838470    -0.30900
H2058       H  0.26627697  0.38878607  0.11776319     0.10900
S2059       S  0.28922069  0.46533008  0.05396182    -0.28000
H2060       H  0.25016639  0.48591568  0.09175199     0.08200
H2061       H  0.13335532  0.50077683  0.15977976     0.26600
H2062       H  0.23983594  0.38575547  0.15598550     0.21400
H2063       H  0.31484742  0.45382640  0.06090782     0.26700
H2064       H  0.28095717  0.47474419  0.14834523     0.15600
C2065       C  0.18384656  0.68756695  0.13782176    -0.11700
C2066       C  0.21188082  0.68263522  0.13275979     0.14800
C2067       C  0.22261332  0.65596833  0.13656609     0.01700
C2068       C  0.20572050  0.63549322  0.14759795    -0.16100
C2069       C  0.17820546  0.64099626  0.15445373    -0.10900
C2070       C  0.16687676  0.66700717  0.14849898     0.08400
C2071       C  0.22982743  0.70648833  0.12712054     0.09500
S2072       S  0.25806122  0.64738152  0.12950804    -0.25200
H2073       H  0.21460504  0.61570020  0.15264179     0.19700
S2074       S  0.13187509  0.67613608  0.15718134    -0.30900
H2075       H  0.17552912  0.70803408  0.13496335     0.10000
C2076       C  0.22769448  0.72144837  0.10260898     0.03200
C2077       C  0.24281033  0.74571827  0.09951962    -0.13200
C2078       C  0.26002357  0.75554365  0.12052130    -0.08900
C2079       C  0.26328543  0.73952706  0.14447410     0.06700
C2080       C  0.24791115  0.71542443  0.14762410    -0.14000
S2081       S  0.20537644  0.70983577  0.07544939    -0.30900
H2082       H  0.24021292  0.75772068  0.08104796     0.10900
S2083       S  0.28681431  0.74839365  0.17153865    -0.28000
H2084       H  0.24974047  0.70369924  0.16640452     0.08200
H2085       H  0.12115384  0.64946155  0.15488322     0.26600
H2086       H  0.21110128  0.73124540  0.05695664     0.21400
H2087       H  0.30706338  0.75924986  0.15393290     0.19500
H2088       H  0.26205883  0.66733907  0.10906688     0.15600
C2089       C  0.31256954  0.60489192  0.33514249    -0.11700
C2090       C  0.31432439  0.60452392  0.30642985     0.14800
C2091       C  0.33930924  0.61212292  0.29370602     0.01700
C2092       C  0.36052962  0.62318198  0.30958118    -0.16100
C2093       C  0.35762103  0.62637995  0.33806498    -0.10900
C2094       C  0.33413123  0.61527555  0.35108156     0.08400
C2095       C  0.28874664  0.60005108  0.29045439     0.09500
S2096       S  0.34447196  0.61019790  0.25715826    -0.25200
H2097       H  0.37849716  0.63157289  0.29934573     0.19700
S2098       S  0.32892969  0.61710271  0.38754703    -0.30900
H2099       H  0.29359584  0.59867668  0.34511169     0.10000
C2100       C  0.27542008  0.57444525  0.28990422     0.03200
C2101       C  0.25008050  0.57193920  0.27641052    -0.13200
C2102       C  0.23758209  0.59453558  0.26331623    -0.08900
C2103       C  0.25174902  0.61990906  0.26285161     0.06700
C2104       C  0.27688820  0.62243861  0.27666770    -0.14000
S2105       S  0.29071489  0.54494986  0.30636745    -0.30900
H2106       H  0.23953504  0.55237824  0.27682127     0.10900
S2107       S  0.23936845  0.64956102  0.24451692    -0.28000
H2108       H  0.28728646  0.64211626  0.27680661     0.08200
H2109       H  0.35669257  0.61246676  0.39411529     0.26600
H2110       H  0.27036558  0.52587269  0.29888386     0.21400
H2111       H  0.22893037  0.63445117  0.22229110     0.26700
H2112       H  0.32566250  0.58874370  0.25269148     0.15600
C2113       C  0.33090042  0.68849884  0.48772118    -0.11700
C2114       C  0.30522139  0.67696487  0.48108580     0.14800
C2115       C  0.29977974  0.67016831  0.45353939     0.01700
C2116       C  0.31974837  0.67526322  0.43335502    -0.16100
C2117       C  0.34570099  0.68621227  0.43984399    -0.10900
C2118       C  0.35107171  0.69332320  0.46743553     0.08400
C2119       C  0.28418544  0.67146028  0.50283000     0.09500
S2120       S  0.26779374  0.65373569  0.44409649    -0.25200
H2121       H  0.31528882  0.67008074  0.41229571     0.19700
S2122       S  0.38254801  0.70980000  0.47779579    -0.30900
H2123       H  0.33514070  0.69399452  0.50879123     0.10000
C2124       C  0.28718374  0.64943566  0.52137686     0.03200
C2125       C  0.26438991  0.64083768  0.53707966    -0.13200
C2126       C  0.23851347  0.65352817  0.53439303    -0.08900
C2127       C  0.23622572  0.67698933  0.51760911     0.06700
C2128       C  0.25904343  0.68583562  0.50222198    -0.14000
S2129       S  0.31898887  0.63019489  0.52270757    -0.30900
H2130       H  0.26598991  0.62244286  0.54945306     0.10900
S2131       S  0.20399659  0.69478307  0.51303380    -0.28000
H2132       H  0.25661827  0.70288882  0.48817288     0.08200
H2133       H  0.38552088  0.72549559  0.45376611     0.26600
H2134       H  0.31103843  0.61208702  0.54373950     0.21400
H2135       H  0.19193468  0.68599483  0.53775583     0.26700
H2136       H  0.27370457  0.65050411  0.41605168     0.15600
C2137       C  0.01295183  0.72928671  0.56168507    -0.11700
C2138       C  0.03821151  0.73422856  0.57468901     0.14800
C2139       C  0.04010388  0.75631238  0.59337713     0.01700
C2140       C  0.01630834  0.77108352  0.60059302    -0.16100
C2141       C  0.99047976  0.76420945  0.58974211    -0.10900
C2142       C  0.98914667  0.74400117  0.56902205     0.08400
C2143       C  0.06019183  0.71294551  0.57257299     0.09500
S2144       S  0.07151282  0.76440096  0.61121151    -0.25200
H2145       H  0.01752037  0.78612785  0.61691894     0.19700
S2146       S  0.95710351  0.73440828  0.55314355    -0.30900
H2147       H  0.01130495  0.71246292  0.54725429     0.10000
C2148       C  0.06153908  0.69149510  0.59193211     0.03200
C2149       C  0.08152891  0.67086615  0.58904422    -0.13200
C2150       C  0.10041742  0.67105185  0.56723651    -0.08900
C2151       C  0.09925023  0.69265440  0.54781097     0.06700
C2152       C  0.07910964  0.71331992  0.55072690    -0.14000
S2153       S  0.03711068  0.68986426  0.61992167    -0.30900
H2154       H  0.08220237  0.65412105  0.60362588     0.10900
S2155       S  0.12175346  0.69481867  0.51829063    -0.28000
H2156       H  0.07795308  0.72964860  0.53569888     0.08200
H2157       H  0.94293166  0.75878994  0.55962318     0.26600
H2158       H  0.04712118  0.66548656  0.63174605     0.21400
H2159       H  0.13630450  0.67015288  0.52152265     0.26700
H2160       H  0.08951967  0.75435035  0.59095276     0.15600
C2161       C  0.27884895  0.48889007  0.66592867    -0.11700
C2162       C  0.28753019  0.50060130  0.64116870     0.14800
C2163       C  0.31424056  0.49477815  0.63111997     0.01700
C2164       C  0.33140656  0.47699956  0.64580043    -0.16100
C2165       C  0.32280879  0.46535479  0.67071056    -0.10900
C2166       C  0.29596916  0.47111676  0.68057100     0.08400
C2167       C  0.26801996  0.51843803  0.62622676     0.09500
S2168       S  0.32777489  0.50956032  0.59996462    -0.25200
H2169       H  0.35191527  0.47274655  0.63803801     0.19700
S2170       S  0.28165319  0.45502339  0.71062224    -0.30900
H2171       H  0.25824921  0.49305579  0.67351072     0.10000
C2172       C  0.25549154  0.50984747  0.60169839     0.03200
C2173       C  0.23766784  0.52781688  0.58798199    -0.13200
C2174       C  0.23181826  0.55408007  0.59846579    -0.08900
C2175       C  0.24427839  0.56248421  0.62318933     0.06700
C2176       C  0.26194866  0.54447567  0.63692809    -0.14000
S2177       S  0.26146823  0.47572780  0.58836148    -0.30900
H2178       H  0.22780774  0.52122514  0.56924298     0.10900
S2179       S  0.23960886  0.59628171  0.63753259    -0.28000
H2180       H  0.27163294  0.55105502  0.65578335     0.08200
H2181       H  0.29212427  0.42889135  0.70399163     0.26600
H2182       H  0.24608504  0.47883982  0.56419657     0.21400
H2183       H  0.23914332  0.60993873  0.61213759     0.26700
H2184       H  0.31229043  0.53394504  0.60092467     0.15600
C2185       C  0.07603747  0.52679384  0.63528102    -0.11700
C2186       C  0.05278740  0.54295353  0.64098223     0.14800
C2187       C  0.05551622  0.57190620  0.64113710     0.01700
C2188       C  0.07995774  0.58385614  0.63140066    -0.16100
C2189       C  0.10196160  0.56743646  0.62234732    -0.10900
C2190       C  0.10063081  0.53876221  0.62634955     0.08400
C2191       C  0.02569313  0.52891717  0.64340233     0.09500
S2192       S  0.02797997  0.59457931  0.65156923    -0.25200
H2193       H  0.08081699  0.60591344  0.62858089     0.19700
S2194       S  0.12895983  0.51629099  0.61783989    -0.30900
H2195       H  0.07449614  0.50460521  0.63601848     0.10000
C2196       C  0.00503218  0.53240855  0.62339131     0.03200
C2197       C  0.98012543  0.51801742  0.62586826    -0.13200
C2198       C  0.97552085  0.49943930  0.64744472    -0.08900
C2199       C  0.99708115  0.49465659  0.66640842     0.06700
C2200       C  0.02156385  0.50975066  0.66444606    -0.14000
S2201       S  0.01068800  0.55424438  0.59394253    -0.30900
H2202       H  0.96397472  0.52158527  0.61106493     0.10900
S2203       S  0.99538551  0.46878685  0.69280427    -0.28000
H2204       H  0.03782934  0.50611714  0.67915563     0.08200
H2205       H  0.14950458  0.53657539  0.61941332     0.26600
H2206       H  0.98454923  0.55092326  0.58208857     0.21400
H2207       H  0.98077964  0.44971627  0.67683649     0.26700
H2208       H  0.01418009  0.57536721  0.66814145     0.15600
C2209       C  0.14617470  0.62261940  0.41163685    -0.11700
C2210       C  0.12285138  0.60888083  0.40177790     0.14800
C2211       C  0.10417925  0.59667554  0.42020790     0.01700
C2212       C  0.11030384  0.59664882  0.44802452    -0.16100
C2213       C  0.13472350  0.60851520  0.45766395    -0.10900
C2214       C  0.15222301  0.62272264  0.43951707     0.08400
C2215       C  0.12158497  0.60332819  0.37235753     0.09500
S2216       S  0.07339060  0.57919116  0.40926033    -0.25200
H2217       H  0.09674292  0.58584312  0.46203174     0.19700
S2218       S  0.18277905  0.64050945  0.45060061    -0.30900
H2219       H  0.16047365  0.63205751  0.39737604     0.10000
C2220       C  0.11772881  0.62446964  0.35326288     0.03200
C2221       C  0.12191075  0.61889528  0.32550858    -0.13200
C2222       C  0.12992552  0.59251620  0.31656726    -0.08900
C2223       C  0.13106866  0.57078810  0.33584238     0.06700
C2224       C  0.12740046  0.57661535  0.36351872    -0.14000
S2225       S  0.10832885  0.65861589  0.36438590    -0.30900
H2226       H  0.12024375  0.63557525  0.31096462     0.10900
S2227       S  0.13743000  0.53536042  0.32703652    -0.28000
H2228       H  0.12986768  0.56031289  0.37844308     0.08200
H2229       H  0.17286711  0.64674561  0.47699806     0.26600
H2230       H  0.10657578  0.67043301  0.33815576     0.21400
H2231       H  0.12117602  0.53598349  0.30331450     0.26700
H2232       H  0.07001723  0.59409323  0.38482654     0.15600
C2233       C  0.13602705  0.43599605  0.43505082    -0.11700
C2234       C  0.13933961  0.43157133  0.46327134     0.14800
C2235       C  0.13365728  0.40533219  0.47422177     0.01700
C2236       C  0.12218326  0.38512907  0.45736386    -0.16100
C2237       C  0.11686885  0.39035287  0.42961990    -0.10900
C2238       C  0.12511565  0.41560847  0.41809996     0.08400
C2239       C  0.14460619  0.45574899  0.48097508     0.09500
S2240       S  0.13889958  0.39703878  0.50982159    -0.25200
H2241       H  0.11557437  0.36587698  0.46637691     0.19700
S2242       S  0.11895511  0.42424693  0.38270496    -0.30900
H2243       H  0.14031218  0.45607840  0.42647824     0.10000
C2244       C  0.16889387  0.47129264  0.47852827     0.03200
C2245       C  0.17118532  0.49612167  0.49287223    -0.13200
C2246       C  0.14970429  0.50584268  0.50978094    -0.08900
C2247       C  0.12618829  0.48917552  0.51364991     0.06700
C2248       C  0.12372591  0.46462641  0.49891224    -0.14000
S2249       S  0.19683391  0.45969609  0.45686535    -0.30900
H2250       H  0.18940013  0.50858615  0.48995731     0.10900
S2251       S  0.09889851  0.49773076  0.53730132    -0.28000
H2252       H  0.10513208  0.45252584  0.50109200     0.08200
H2253       H  0.12069166  0.39723532  0.37273061     0.26600
H2254       H  0.21538982  0.48083938  0.46339283     0.21400
H2255       H  0.11629230  0.51018894  0.55659999     0.26700
H2256       H  0.16001243  0.41626055  0.51421510     0.15600
loop_ 
_geom_bond_atom_site_label_1 
_geom_bond_atom_site_label_2 
_geom_bond_distance 
_geom_bond_site_symmetry_2 
_ccdc_geom_bond_type 
Fe1          O17   2.078       .  S
Fe1           O7   2.036       .  S
Fe1          O14   2.045       .  S
Fe1           O6   2.077       .  S
Fe1          O12   1.938       .  S
Fe2           O5   2.089       .  S
Fe2           O9   2.027       .  S
Fe2          O13   2.092       .  S
Fe2          O18   2.026       .  S
Fe2          O12   1.940       .  S
Fe3          O21   2.077       .  S
Fe3           O8   2.122       .  S
Fe3          O15   2.121       .  S
Fe3           O4   2.064       .  S
Fe3          O12   1.953       .  S
O4           C11   1.273       .  A
O5           C19   1.274       .  A
O6           C11   1.274       .  A
O7           C10   1.262       .  A
O8           C20   1.278       .  A
O9           C22   1.264       .  A
C10          O15   1.277       .  A
C10        C2126   1.479       .  S
C11        C2174   1.477       .  S
O13          C16   1.272       .  A
O14          C16   1.264       .  A
C16        C2246   1.485       .  S
O17          C22   1.274       .  A
O18          C20   1.262       .  A
C19          O21   1.274       .  A
C19        C2150   1.480       .  S
C20        C2189   1.473       .  S
C22        C2213   1.457       .  S
Fe23         O39   2.074       .  S
Fe23         O29   2.033       .  S
Fe23         O36   2.044       .  S
Fe23         O28   2.059       .  S
Fe23         O34   1.955       .  S
Fe24         O27   2.069       .  S
Fe24         O31   2.032       .  S
Fe24         O35   2.099       .  S
Fe24         O40   2.031       .  S
Fe24         O34   1.955       .  S
Fe25         O43   2.088       .  S
Fe25         O30   2.102       .  S
Fe25         O37   2.111       .  S
Fe25         O26   2.074       .  S
Fe25         O34   1.967       .  S
O26          C33   1.270       .  A
O27          C41   1.267       .  A
O28          C33   1.267       .  A
O29          C32   1.266       .  A
O30          C42   1.279       .  A
O31          C44   1.264       .  A
C32          O37   1.279       .  A
C32        C2006   1.473       .  S
C33        C2045   1.483       .  S
O35          C38   1.273       .  A
O36          C38   1.263       .  A
C38        C2102   1.489       .  S
O39          C44   1.270       .  A
O40          C42   1.268       .  A
C41          O43   1.272       .  A
C41        C2021   1.489       .  S
C42        C2069   1.463       .  S
C44        C2222   1.477       .  S
Fe45         O61   2.050       .  S
Fe45         O51   2.025       .  S
Fe45         O58   2.048       .  S
Fe45         O50   2.041       .  S
Fe45         O56   1.955       .  S
Fe46         O49   2.069       .  S
Fe46         O53   2.043       .  S
Fe46         O57   2.086       .  S
Fe46         O62   2.038       .  S
Fe46         O56   1.960       .  S
Fe47         O65   2.075       .  S
Fe47         O52   2.094       .  S
Fe47         O59   2.106       .  S
Fe47         O48   2.063       .  S
Fe47         O56   1.972       .  S
O48          C55   1.267       .  A
O49          C63   1.267       .  A
O50          C55   1.263       .  A
O51          C54   1.264       .  A
O52          C64   1.276       .  A
O53          C66   1.266       .  A
C54          O59   1.277       .  A
C54        C1862   1.473       .  S
C55        C1910   1.467       .  S
O57          C60   1.271       .  A
O58          C60   1.262       .  A
C60        C1982   1.487       .  S
O61          C66   1.270       .  A
O62          C64   1.269       .  A
C63          O65   1.269       .  A
C63        C1886   1.485       .  S
C64        C1934   1.462       .  S
C66        C1958   1.475       .  S
Fe67         O83   2.070       .  S
Fe67         O73   2.032       .  S
Fe67         O80   2.051       .  S
Fe67         O72   2.065       .  S
Fe67         O78   1.949       .  S
Fe68         O71   2.076       .  S
Fe68         O75   2.024       .  S
Fe68         O79   2.091       .  S
Fe68         O84   2.026       .  S
Fe68         O78   1.950       .  S
Fe69         O87   2.081       .  S
Fe69         O74   2.123       .  S
Fe69         O81   2.130       .  S
Fe69         O70   2.061       .  S
Fe69         O78   1.960       .  S
O70          C77   1.269       .  A
O71          C85   1.270       .  A
O72          C77   1.269       .  A
O73          C76   1.264       .  A
O74          C86   1.281       .  A
O75          C88   1.261       .  A
C76          O81   1.282       .  A
C76        C1733   1.482       .  S
C77        C1790   1.476       .  S
O79          C82   1.272       .  A
O80          C82   1.266       .  A
C82        C1838   1.491       .  S
O83          C88   1.271       .  A
O84          C86   1.264       .  A
C85          O87   1.272       .  A
C85        C1766   1.483       .  S
C86        C1814   1.477       .  S
C88        C1949   1.455       .  S
Fe89        O105   2.073       .  S
Fe89         O95   2.034       .  S
Fe89        O102   2.056       .  S
Fe89         O94   2.065       .  S
Fe89        O100   1.947       .  S
Fe90         O93   2.073       .  S
Fe90         O97   2.038       .  S
Fe90        O101   2.081       .  S
Fe90        O106   2.028       .  S
Fe90        O100   1.941       .  S
Fe91        O109   2.090       .  S
Fe91         O96   2.115       .  S
Fe91        O103   2.116       .  S
Fe91         O92   2.068       .  S
Fe91        O100   1.956       .  S
O92          C99   1.270       .  A
O93         C107   1.268       .  A
O94          C99   1.269       .  A
O95          C98   1.266       .  A
O96         C108   1.281       .  A
O97         C110   1.268       .  A
C98         O103   1.279       .  A
C98        C1589   1.479       .  S
C99        C1646   1.471       .  S
O101        C104   1.270       .  A
O102        C104   1.264       .  A
C104       C1718   1.489       .  S
O105        C110   1.272       .  A
O106        C108   1.268       .  A
C107        O109   1.271       .  A
C107       C1613   1.492       .  S
C108       C1661   1.472       .  S
C110       C1685   1.472       .  S
Fe111       O127   2.080       .  S
Fe111       O117   2.039       .  S
Fe111       O124   2.053       .  S
Fe111       O116   2.065       .  S
Fe111       O122   1.957       .  S
Fe112       O115   2.069       .  S
Fe112       O119   2.026       .  S
Fe112       O123   2.088       .  S
Fe112       O128   2.029       .  S
Fe112       O122   1.954       .  S
Fe113       O131   2.075       .  S
Fe113       O118   2.113       .  S
Fe113       O125   2.113       .  S
Fe113       O114   2.058       .  S
Fe113       O122   1.969       .  S
O114        C121   1.268       .  A
O115        C129   1.268       .  A
O116        C121   1.270       .  A
O117        C120   1.265       .  A
O118        C130   1.279       .  A
O119        C132   1.264       .  A
C120        O125   1.278       .  A
C120       C1478   1.478       .  S
C121       C1517   1.481       .  S
O123        C126   1.269       .  A
O124        C126   1.264       .  A
C126       C1565   1.492       .  S
O127        C132   1.274       .  A
O128        C130   1.266       .  A
C129        O131   1.269       .  A
C129       C1493   1.481       .  S
C130       C1541   1.471       .  S
C132       C1694   1.469       .  S
Fe133       O149   2.076       .  S
Fe133       O139   2.038       .  S
Fe133       O146   2.058       .  S
Fe133       O138   2.061       .  S
Fe133       O144   1.958       .  S
Fe134       O137   2.073       .  S
Fe134       O141   2.023       .  S
Fe134       O145   2.091       .  S
Fe134       O150   2.032       .  S
Fe134       O144   1.948       .  S
Fe135       O153   2.092       .  S
Fe135       O140   2.106       .  S
Fe135       O147   2.115       .  S
Fe135       O136   2.067       .  S
Fe135       O144   1.966       .  S
O136        C143   1.271       .  A
O137        C151   1.268       .  A
O138        C143   1.270       .  A
O139        C142   1.264       .  A
O140        C152   1.279       .  A
O141        C154   1.265       .  A
C142        O147   1.278       .  A
C142       C1349   1.479       .  S
C143       C1406   1.477       .  S
O145        C148   1.269       .  A
O146        C148   1.264       .  A
C148       C1805   1.500       .  S
O149        C154   1.273       .  A
O150        C152   1.268       .  A
C151        O153   1.273       .  A
C151       C1373   1.494       .  S
C152       C1421   1.465       .  S
C154       C1445   1.473       .  S
Fe155       O171   2.071       .  S
Fe155       O161   2.031       .  S
Fe155       O168   2.047       .  S
Fe155       O160   2.065       .  S
Fe155       O166   1.952       .  S
Fe156       O159   2.071       .  S
Fe156       O163   2.024       .  S
Fe156       O167   2.094       .  S
Fe156       O172   2.023       .  S
Fe156       O166   1.949       .  S
Fe157       O175   2.088       .  S
Fe157       O162   2.117       .  S
Fe157       O169   2.130       .  S
Fe157       O158   2.069       .  S
Fe157       O166   1.961       .  S
O158        C165   1.270       .  A
O159        C173   1.268       .  A
O160        C165   1.268       .  A
O161        C164   1.265       .  A
O162        C174   1.281       .  A
O163        C176   1.261       .  A
C164        O169   1.282       .  A
C164       C1757   1.481       .  S
C165       C1277   1.483       .  S
O167        C170   1.273       .  A
O168        C170   1.265       .  A
C170       C1325   1.486       .  S
O171        C176   1.270       .  A
O172        C174   1.265       .  A
C173        O175   1.273       .  A
C173       C1253   1.485       .  S
C174       C1310   1.473       .  S
C176       C1454   1.461       .  S
Fe177       O193   2.077       .  S
Fe177       O183   2.037       .  S
Fe177       O190   2.043       .  S
Fe177       O182   2.075       .  S
Fe177       O188   1.941       .  S
Fe178       O181   2.083       .  S
Fe178       O185   2.022       .  S
Fe178       O189   2.087       .  S
Fe178       O194   2.021       .  S
Fe178       O188   1.949       .  S
Fe179       O197   2.083       .  S
Fe179       O184   2.123       .  S
Fe179       O191   2.132       .  S
Fe179       O180   2.063       .  S
Fe179       O188   1.957       .  S
O180        C187   1.271       .  A
O181        C195   1.273       .  A
O182        C187   1.272       .  A
O183        C186   1.264       .  A
O184        C196   1.279       .  A
O185        C198   1.262       .  A
C186        O191   1.282       .  A
C186       C1133   1.492       .  S
C187       C1190   1.484       .  S
O189        C192   1.270       .  A
O190        C192   1.263       .  A
C192       C2078   1.484       .  S
O193        C198   1.274       .  A
O194        C196   1.262       .  A
C195        O197   1.274       .  A
C195       C1166   1.485       .  S
C196       C1205   1.472       .  S
C198       C1229   1.450       .  S
Fe199       O215   2.058   1_655  S
Fe199       O205   2.029       .  S
Fe199       O212   2.045       .  S
Fe199       O204   2.055       .  S
Fe199       O210   1.965       .  S
Fe200       O203   2.064       .  S
Fe200       O207   2.039   1_655  S
Fe200       O211   2.080   1_655  S
Fe200       O216   2.033       .  S
Fe200       O210   1.968       .  S
Fe201       O219   2.083       .  S
Fe201       O206   2.110       .  S
Fe201       O213   2.119       .  S
Fe201       O202   2.075       .  S
Fe201       O210   1.977       .  S
O202        C209   1.271       .  A
O203        C217   1.267       .  A
O204        C209   1.268       .  A
O205        C208   1.262       .  A
O206        C218   1.280       .  A
O207        C220   1.265       .  A
C208        O213   1.279       .  A
C208       C2030   1.481       .  S
C209       C1070   1.486       .  S
O211        C214   1.269       .  A
O212        C214   1.262   1_655  A
C214       C1109   1.486       .  S
O215        C220   1.271       .  A
O216        C218   1.267       .  A
C217        O219   1.270       .  A
C217       C1037   1.492       .  S
C218       C1094   1.470       .  S
C220       C1238   1.469       .  S
Fe221       O237   2.076   1_545  S
Fe221       O227   2.023       .  S
Fe221       O234   2.034       .  S
Fe221       O226   2.073       .  S
Fe221       O232   1.946       .  S
Fe222       O225   2.076       .  S
Fe222       O229   2.024   1_545  S
Fe222       O233   2.091       .  S
Fe222       O238   2.026       .  S
Fe222       O232   1.953       .  S
Fe223       O241   2.066       .  S
Fe223       O228   2.117       .  S
Fe223       O235   2.123       .  S
Fe223       O224   2.050       .  S
Fe223       O232   1.963       .  S
O224        C231   1.268       .  A
O225        C239   1.271       .  A
O226        C231   1.272       .  A
O227        C230   1.261       .  A
O228        C240   1.279       .  A
O229        C242   1.261       .  A
C230        O235   1.279       .  A
C230       C1157   1.480       .  S
C231       C1526   1.481       .  S
O233        C236   1.272   1_545  A
O234        C236   1.261   1_545  A
C236       C1430   1.477       .  S
O237        C242   1.273       .  A
O238        C240   1.264       .  A
C239        O241   1.269       .  A
C239       C1853   1.475       .  S
C240       C1829   1.473       .  S
C242       C1013   1.460       .  S
Fe243       O259   2.063       .  S
Fe243       O249   2.034       .  S
Fe243       O256   2.054       .  S
Fe243       O248   2.059       .  S
Fe243       O254   1.946       .  S
Fe244       O247   2.073       .  S
Fe244       O251   2.038       .  S
Fe244       O255   2.083       .  S
Fe244       O260   2.028       .  S
Fe244       O254   1.951       .  S
Fe245       O263   2.087       .  S
Fe245       O250   2.125       .  S
Fe245       O257   2.132       .  S
Fe245       O246   2.064       .  S
Fe245       O254   1.958       .  S
O246        C253   1.270       .  A
O247        C261   1.269       .  A
O248        C253   1.268       .  A
O249        C252   1.264       .  A
O250        C262   1.283       .  A
O251        C264   1.267       .  A
C252        O257   1.282       .  A
C252       C1382   1.489       .  S
C253       C1637   1.473       .  S
O255        C258   1.270       .  A
O256        C258   1.262       .  A
C258       C1214   1.491       .  S
O259        C264   1.274       .  A
O260        C262   1.267       .  A
C261        O263   1.272       .  A
C261       C2117   1.494       .  S
C262       C2093   1.476       .  S
C264       C1022   1.472       .  S
Fe265       O281   2.079       .  S
Fe265       O271   2.044       .  S
Fe265       O278   2.049       .  S
Fe265       O270   2.070       .  S
Fe265       O276   1.953       .  S
Fe266       O269   2.073       .  S
Fe266       O273   2.023       .  S
Fe266       O277   2.089       .  S
Fe266       O282   2.025       .  S
Fe266       O276   1.949       .  S
Fe267       O285   2.082       .  S
Fe267       O272   2.113       .  S
Fe267       O279   2.123       .  S
Fe267       O268   2.064       .  S
Fe267       O276   1.962       .  S
O268        C275   1.269       .  A
O269        C283   1.269       .  A
O270        C275   1.270       .  A
O271        C274   1.267       .  A
O272        C284   1.279       .  A
O273        C286   1.262       .  A
C274        O279   1.281       .  A
C274       C1262   1.484       .  S
C275       C1181   1.482       .  S
O277        C280   1.273       .  A
O278        C280   1.264       .  A
C280       C1670   1.487       .  S
O281        C286   1.272       .  A
O282        C284   1.265       .  A
C283        O285   1.272       .  A
C283        C941   1.483       .  S
C284        C965   1.471       .  S
C286        C989   1.469       .  S
Fe287       O303   2.090       .  S
Fe287       O293   2.030       .  S
Fe287       O300   2.052       .  S
Fe287       O292   2.073       .  S
Fe287       O298   1.949       .  S
Fe288       O291   2.068       .  S
Fe288       O295   2.018       .  S
Fe288       O299   2.084       .  S
Fe288       O304   2.016       .  S
Fe288       O298   1.951       .  S
Fe289       O307   2.083       .  S
Fe289       O294   2.128       .  S
Fe289       O301   2.123       .  S
Fe289       O290   2.062       .  S
Fe289       O298   1.956       .  S
O290        C297   1.269       .  A
O291        C305   1.265       .  A
O292        C297   1.272       .  A
O293        C296   1.263       .  A
O294        C306   1.284       .  A
O295        C308   1.264       .  A
C296        O301   1.281       .  A
C296       C1622   1.480       .  S
C297       C1061   1.481       .  S
O299        C302   1.267       .  A
O300        C302   1.262       .  A
C302       C1301   1.492       .  S
O303        C308   1.278       .  A
O304        C306   1.266       .  A
C305        O307   1.269       .  A
C305        C893   1.481       .  S
C306        C917   1.476       .  S
C308        C998   1.462       .  S
Fe309       O325   2.086   1_554  S
Fe309       O315   2.037       .  S
Fe309       O322   2.046       .  S
Fe309       O314   2.078       .  S
Fe309       O320   1.945       .  S
Fe310       O313   2.068       .  S
Fe310       O317   2.030   1_554  S
Fe310       O321   2.082       .  S
Fe310       O326   2.031       .  S
Fe310       O320   1.945       .  S
Fe311       O329   2.096       .  S
Fe311       O316   2.122       .  S
Fe311       O323   2.121       .  S
Fe311       O312   2.069       .  S
Fe311       O320   1.960       .  S
O312        C319   1.273       .  A
O313        C327   1.268       .  A
O314        C319   1.274       .  A
O315        C318   1.262       .  A
O316        C328   1.281       .  A
O317        C330   1.267       .  A
C318        O323   1.279       .  A
C318        C854   1.482       .  S
C319       C2054   1.484       .  S
O321        C324   1.267       .  A
O322        C324   1.261       .  A
C324        C974   1.489   1_554  S
O325        C330   1.277       .  A
O326        C328   1.267       .  A
C327        O329   1.274       .  A
C327       C1469   1.495       .  S
C328       C1709   1.476       .  S
C330        C869   1.472       .  S
Fe331       O347   2.081       .  S
Fe331       O337   2.031       .  S
Fe331       O344   2.040       .  S
Fe331       O336   2.077       .  S
Fe331       O342   1.946       .  S
Fe332       O335   2.078       .  S
Fe332       O339   2.031       .  S
Fe332       O343   2.092       .  S
Fe332       O348   2.031       .  S
Fe332       O342   1.947       .  S
Fe333       O351   2.082       .  S
Fe333       O338   2.114       .  S
Fe333       O345   2.122       .  S
Fe333       O334   2.062       .  S
Fe333       O342   1.961       .  S
O334        C341   1.271       .  A
O335        C349   1.270       .  A
O336        C341   1.273       .  A
O337        C340   1.262       .  A
O338        C350   1.279       .  A
O339        C352   1.266       .  A
C340        O345   1.279       .  A
C340        C950   1.480       .  S
C341       C2165   1.479       .  S
O343        C346   1.271       .  A
O344        C346   1.260       .  A
C346        C821   1.485       .  S
O347        C352   1.275       .  A
O348        C350   1.266       .  A
C349        O351   1.273       .  A
C349       C1742   1.481       .  S
C350       C1973   1.473       .  S
C352        C878   1.472       .  S
Fe353       O369   2.077       .  S
Fe353       O359   2.019       .  S
Fe353       O366   2.038       .  S
Fe353       O358   2.065       .  S
Fe353       O364   1.949       .  S
Fe354       O357   2.079       .  S
Fe354       O361   2.037       .  S
Fe354       O365   2.078       .  S
Fe354       O370   2.030       .  S
Fe354       O364   1.951       .  S
Fe355       O373   2.086       .  S
Fe355       O360   2.117       .  S
Fe355       O367   2.117       .  S
Fe355       O356   2.079       .  S
Fe355       O364   1.966       .  S
O356        C363   1.274       .  A
O357        C371   1.270       .  A
O358        C363   1.271       .  A
O359        C362   1.260       .  A
O360        C372   1.281       .  A
O361        C374   1.268       .  A
C362        O367   1.277       .  A
C362        C758   1.481       .  S
C363        C782   1.477       .  S
O365        C368   1.266       .  A
O366        C368   1.258       .  A
C368       C1925   1.476       .  S
O369        C374   1.278       .  A
O370        C372   1.266       .  A
C371        O373   1.272       .  A
C371        C845   1.492       .  S
C372        C830   1.469       .  S
C374        C797   1.482       .  S
Fe375       O391   2.084   1_565  S
Fe375       O381   2.030       .  S
Fe375       O388   2.046       .  S
Fe375       O380   2.066       .  S
Fe375       O386   1.953       .  S
Fe376       O379   2.071       .  S
Fe376       O383   2.032       .  S
Fe376       O387   2.092       .  S
Fe376       O392   2.027       .  S
Fe376       O386   1.954       .  S
Fe377       O395   2.092       .  S
Fe377       O382   2.113       .  S
Fe377       O389   2.124       .  S
Fe377       O378   2.075       .  S
Fe377       O386   1.966       .  S
O378        C385   1.270       .  A
O379        C393   1.267       .  A
O380        C385   1.269       .  A
O381        C384   1.265       .  A
O382        C394   1.281       .  A
O383        C396   1.263   1_565  A
C384        O389   1.282       .  A
C384       C1877   1.485       .  S
C385        C701   1.492       .  S
O387        C390   1.270       .  A
O388        C390   1.262       .  A
C390        C734   1.488       .  S
O391        C396   1.276       .  A
O392        C394   1.268       .  A
C393        O395   1.273       .  A
C393       C1142   1.492       .  S
C394       C1118   1.468       .  S
C396        C806   1.473       .  S
Fe397       O413   2.083       .  S
Fe397       O403   2.036       .  S
Fe397       O410   2.047       .  S
Fe397       O402   2.085       .  S
Fe397       O408   1.944       .  S
Fe398       O401   2.082       .  S
Fe398       O405   2.021       .  S
Fe398       O409   2.087       .  S
Fe398       O414   2.027       .  S
Fe398       O408   1.940       .  S
Fe399       O417   2.081       .  S
Fe399       O404   2.118       .  S
Fe399       O411   2.121       .  S
Fe399       O400   2.064       .  S
Fe399       O408   1.955       .  S
O400        C407   1.272       .  A
O401        C415   1.272       .  A
O402        C407   1.275       .  A
O403        C406   1.262       .  A
O404        C416   1.278       .  A
O405        C418   1.262       .  A
C406        O411   1.278       .  A
C406       C2141   1.478       .  S
C407        C710   1.486       .  S
O409        C412   1.273       .  A
O410        C412   1.264       .  A
C412        C926   1.483       .  S
O413        C418   1.273       .  A
O414        C416   1.263       .  A
C415        O417   1.274       .  A
C415       C1358   1.483       .  S
C416       C1334   1.472       .  S
C418        C686   1.468       .  S
Fe419       O435   2.076       .  S
Fe419       O425   2.027       .  S
Fe419       O432   2.045       .  S
Fe419       O424   2.079       .  S
Fe419       O430   1.945       .  S
Fe420       O423   2.081       .  S
Fe420       O427   2.024       .  S
Fe420       O431   2.095       .  S
Fe420       O436   2.021       .  S
Fe420       O430   1.944       .  S
Fe421       O439   2.085       .  S
Fe421       O426   2.118       .  S
Fe421       O433   2.127       .  S
Fe421       O422   2.065       .  S
Fe421       O430   1.957       .  S
O422        C429   1.270       .  A
O423        C437   1.272       .  A
O424        C429   1.273       .  A
O425        C428   1.263       .  A
O426        C438   1.279       .  A
O427        C440   1.262       .  A
C428        O433   1.281       .  A
C428        C902   1.485       .  S
C429        C773   1.489       .  S
O431        C434   1.274       .  A
O432        C434   1.264       .  A
C434       C2198   1.489       .  S
O435        C440   1.272       .  A
O436        C438   1.264       .  A
C437        O439   1.273       .  A
C437        C638   1.486       .  S
C438        C653   1.471       .  S
C440        C677   1.463       .  S
Fe441       O457   2.069   1_455  S
Fe441       O447   2.030       .  S
Fe441       O454   2.047       .  S
Fe441       O446   2.053       .  S
Fe441       O452   1.954       .  S
Fe442       O445   2.061       .  S
Fe442       O449   2.031   1_455  S
Fe442       O453   2.083       .  S
Fe442       O458   2.033       .  S
Fe442       O452   1.952       .  S
Fe443       O461   2.077       .  S
Fe443       O448   2.106       .  S
Fe443       O455   2.114       .  S
Fe443       O444   2.058       .  S
Fe443       O452   1.968       .  S
O444        C451   1.268       .  A
O445        C459   1.266       .  A
O446        C451   1.267       .  A
O447        C450   1.264       .  A
O448        C460   1.279       .  A
O449        C462   1.265       .  A
C450        O455   1.278       .  A
C450        C581   1.477       .  S
C451       C1901   1.468       .  S
O453        C456   1.270       .  A
O454        C456   1.263       .  A
C456        C662   1.486       .  S
O457        C462   1.270       .  A
O458        C460   1.268       .  A
C459        O461   1.269       .  A
C459       C1997   1.479       .  S
C460       C2237   1.467       .  S
C462        C614   1.475       .  S
Fe463       O479   2.071       .  S
Fe463       O469   2.037       .  S
Fe463       O476   2.059       .  S
Fe463       O468   2.072       .  S
Fe463       O474   1.945       .  S
Fe464       O467   2.075       .  S
Fe464       O471   2.030       .  S
Fe464       O475   2.079       .  S
Fe464       O480   2.028       .  S
Fe464       O474   1.942       .  S
Fe465       O483   2.076       .  S
Fe465       O470   2.123       .  S
Fe465       O477   2.122       .  S
Fe465       O466   2.057       .  S
Fe465       O474   1.961       .  S
O466        C473   1.270       .  A
O467        C481   1.270       .  A
O468        C473   1.273       .  A
O469        C472   1.263       .  A
O470        C482   1.280       .  A
O471        C484   1.264       .  A
C472        O477   1.279       .  A
C472        C629   1.482       .  S
C473       C1781   1.482       .  S
O475        C478   1.269       .  A
O476        C478   1.267       .  A
C478        C557   1.495       .  S
O479        C484   1.272       .  A
O480        C482   1.264       .  A
C481        O483   1.272       .  A
C481       C1598   1.480       .  S
C482       C1574   1.476       .  S
C484        C605   1.462       .  S
Fe485       O501   2.066       .  S
Fe485       O491   2.035       .  S
Fe485       O498   2.048       .  S
Fe485       O490   2.067       .  S
Fe485       O496   1.949       .  S
Fe486       O489   2.080       .  S
Fe486       O493   2.036       .  S
Fe486       O497   2.087       .  S
Fe486       O502   2.034       .  S
Fe486       O496   1.951       .  S
Fe487       O505   2.074       .  S
Fe487       O492   2.110       .  S
Fe487       O499   2.119       .  S
Fe487       O488   2.057       .  S
Fe487       O496   1.963       .  S
O488        C495   1.269       .  A
O489        C503   1.272       .  A
O490        C495   1.270       .  A
O491        C494   1.265       .  A
O492        C504   1.277       .  A
O493        C506   1.264       .  A
C494        O499   1.279       .  A
C494       C1046   1.491       .  S
C495       C1397   1.473       .  S
O497        C500   1.273       .  A
O498        C500   1.264       .  A
C500       C1550   1.484       .  S
O501        C506   1.270       .  A
O502        C504   1.265       .  A
C503        O505   1.272       .  A
C503        C590   1.482       .  S
C504        C566   1.475       .  S
C506        C542   1.462       .  S
Fe507       O523   2.073   1_556  S
Fe507       O513   2.031       .  S
Fe507       O520   2.048       .  S
Fe507       O512   2.065       .  S
Fe507       O518   1.954       .  S
Fe508       O511   2.068       .  S
Fe508       O515   2.034   1_556  S
Fe508       O519   2.086       .  S
Fe508       O524   2.033       .  S
Fe508       O518   1.951       .  S
Fe509       O527   2.086       .  S
Fe509       O514   2.109       .  S
Fe509       O521   2.118       .  S
Fe509       O510   2.072       .  S
Fe509       O518   1.964       .  S
O510        C517   1.270       .  A
O511        C525   1.268       .  A
O512        C517   1.269       .  A
O513        C516   1.264       .  A
O514        C526   1.279       .  A
O515        C528   1.265       .  A
C516        O521   1.279       .  A
C516       C1502   1.480       .  S
C517       C1286   1.476       .  S
O519        C522   1.271       .  A
O520        C522   1.264       .  A
C522       C1085   1.480   1_556  S
O523        C528   1.270       .  A
O524        C526   1.267       .  A
C525        O527   1.272       .  A
C525        C749   1.490       .  S
C526        C725   1.468       .  S
C528        C533   1.478       .  S
C529        C530   1.400       .  A
C529        C534   1.398       .  A
C529        H539   1.083       .  S
C530        C535   1.465       .  S
C530        C531   1.404       .  A
C531        C532   1.391       .  A
C531        S536   1.804       .  S
C532        C533   1.408       .  A
C532        H537   1.083       .  S
C533        C534   1.418       .  A
C534        S538   1.811       .  S
C535        C540   1.405       .  A
C535        C544   1.400       .  A
S536        H552   1.407       .  S
S538        H549   1.407       .  S
C540        C541   1.398       .  A
C540        S545   1.806       .  S
C541        C542   1.404       .  A
C541        H546   1.083       .  S
C542        C543   1.408       .  A
C543        C544   1.394       .  A
C543        S547   1.807       .  S
C544        H548   1.083       .  S
S545        H550   1.407       .  S
S547        H551   1.407       .  S
C553        C554   1.399       .  A
C553        C558   1.397       .  A
C553        H563   1.085       .  S
C554        C559   1.483       .  S
C554        C555   1.410       .  A
C555        C556   1.405       .  A
C555        S560   1.803       .  S
C556        C557   1.412       .  A
C556        H561   1.083       .  S
C557        C558   1.422       .  A
C558        S562   1.803       .  S
C559        C564   1.408       .  A
C559        C568   1.404       .  A
S560        H576   1.405       .  S
S562        H573   1.408       .  S
C564        C565   1.404       .  A
C564        S569   1.806       .  S
C565        C566   1.405       .  A
C565        H570   1.083       .  S
C566        C567   1.412       .  A
C567        C568   1.402       .  A
C567        S571   1.802       .  S
C568        H572   1.084       .  S
S569        H574   1.407       .  S
S571        H575   1.405       .  S
C577        C578   1.403   1_655  A
C577        C582   1.398   1_655  A
C577        H587   1.084       .  S
C578        C583   1.491   1_455  S
C578        C579   1.417       .  A
C579        C580   1.407       .  A
C579        S584   1.804       .  S
C580        C581   1.405       .  A
C580        H585   1.083       .  S
C581        C582   1.412       .  A
C582        S586   1.805   1_455  S
C583        C588   1.416       .  A
C583        C592   1.403       .  A
S584        H600   1.406       .  S
S586        H597   1.407   1_655  S
C588        C589   1.409       .  A
C588        S593   1.807       .  S
C589        C590   1.404       .  A
C589        H594   1.083       .  S
C590        C591   1.413       .  A
C591        C592   1.400       .  A
C591        S595   1.803       .  S
C592        H596   1.084       .  S
S593        H598   1.407       .  S
S595        H599   1.407       .  S
C601        C602   1.400       .  A
C601        C606   1.395       .  A
C601        H611   1.083       .  S
C602        C607   1.459       .  S
C602        C603   1.405       .  A
C603        C604   1.391       .  A
C603        S608   1.803       .  S
C604        C605   1.405       .  A
C604        H609   1.084       .  S
C605        C606   1.410       .  A
C606        S610   1.807       .  S
C607        C612   1.399       .  A
C607        C616   1.398       .  A
S608        H624   1.406       .  S
S610        H621   1.407       .  S
C612        C613   1.394       .  A
C612        S617   1.806       .  S
C613        C614   1.410       .  A
C613        H618   1.082       .  S
C614        C615   1.418       .  A
C615        C616   1.395       .  A
C615        S619   1.811       .  S
C616        H620   1.083       .  S
S617        H622   1.407       .  S
S619        H623   1.407       .  S
C625        C626   1.405       .  A
C625        C630   1.402       .  A
C625        H635   1.084       .  S
C626        C631   1.498       .  S
C626        C627   1.417       .  A
C627        C628   1.407       .  A
C627        S632   1.803       .  S
C628        C629   1.405       .  A
C628        H633   1.084       .  S
C629        C630   1.412       .  A
C630        S634   1.803       .  S
C631        C636   1.417       .  A
C631        C640   1.404       .  A
S632        H648   1.406       .  S
S634        H645   1.407       .  S
C636        C637   1.411       .  A
C636        S641   1.807       .  S
C637        C638   1.404       .  A
C637        H642   1.083       .  S
C638        C639   1.414       .  A
C639        C640   1.403       .  A
C639        S643   1.803       .  S
C640        H644   1.084       .  S
S641        H646   1.407       .  S
S643        H647   1.407       .  S
C649        C650   1.400       .  A
C649        C654   1.397       .  A
C649        H659   1.084       .  S
C650        C655   1.483       .  S
C650        C651   1.415       .  A
C651        C652   1.403       .  A
C651        S656   1.804       .  S
C652        C653   1.402       .  A
C652        H657   1.084       .  S
C653        C654   1.414       .  A
C654        S658   1.805       .  S
C655        C660   1.411       .  A
C655        C664   1.401       .  A
S656        H672   1.406       .  S
S658        H669   1.407       .  S
C660        C661   1.402       .  A
C660        S665   1.809       .  S
C661        C662   1.407   1_655  A
C661        H666   1.082       .  S
C662        C663   1.418       .  A
C663        C664   1.401   1_455  A
C663        S667   1.803       .  S
C664        H668   1.084       .  S
S665        H670   1.407       .  S
S667        H671   1.408       .  S
C673        C674   1.403       .  A
C673        C678   1.395       .  A
C673        H683   1.083       .  S
C674        C679   1.465       .  S
C674        C675   1.406       .  A
C675        C676   1.391       .  A
C675        S680   1.804       .  S
C676        C677   1.405       .  A
C676        H681   1.084       .  S
C677        C678   1.409       .  A
C678        S682   1.809       .  S
C679        C684   1.403       .  A
C679        C688   1.402       .  A
S680        H696   1.407       .  S
S682        H693   1.407       .  S
C684        C685   1.395       .  A
C684        S689   1.807       .  S
C685        C686   1.408       .  A
C685        H690   1.083       .  S
C686        C687   1.411       .  A
C687        C688   1.392       .  A
C687        S691   1.803       .  S
C688        H692   1.084       .  S
S689        H694   1.407       .  S
S691        H695   1.406       .  S
C697        C698   1.403       .  A
C697        C702   1.407       .  A
C697        H707   1.083       .  S
C698        C703   1.485       .  S
C698        C699   1.410       .  A
C699        C700   1.399       .  A
C699        S704   1.804       .  S
C700        C701   1.408       .  A
C700        H705   1.084       .  S
C701        C702   1.419       .  A
C702        S706   1.808       .  S
C703        C708   1.409       .  A
C703        C712   1.402   1_455  A
S704        H720   1.406       .  S
S706        H717   1.406       .  S
C708        C709   1.405       .  A
C708        S713   1.806       .  S
C709        C710   1.408   1_455  A
C709        H714   1.083       .  S
C710        C711   1.417       .  A
C711        C712   1.401       .  A
C711        S715   1.804       .  S
C712        H716   1.084       .  S
S713        H718   1.407       .  S
S715        H719   1.407       .  S
C721        C722   1.402       .  A
C721        C726   1.399       .  A
C721        H731   1.084       .  S
C722        C727   1.480       .  S
C722        C723   1.411       .  A
C723        C724   1.401       .  A
C723        S728   1.802   1_545  S
C724        C725   1.403       .  A
C724        H729   1.084       .  S
C725        C726   1.412       .  A
C726        S730   1.805       .  S
C727        C732   1.405       .  A
C727        C736   1.402       .  A
S728        H744   1.405       .  S
S730        H741   1.405       .  S
C732        C733   1.403   1_655  A
C732        S737   1.806       .  S
C733        C734   1.411   1_545  A
C733        H738   1.082       .  S
C734        C735   1.416       .  A
C735        C736   1.401   1_465  A
C735        S739   1.803       .  S
C736        H740   1.084       .  S
S737        H742   1.407       .  S
S739        H743   1.405       .  S
C745        C746   1.402       .  A
C745        C750   1.401       .  A
C745        H755   1.084       .  S
C746        C751   1.492       .  S
C746        C747   1.418       .  A
C747        C748   1.406       .  A
C747        S752   1.804       .  S
C748        C749   1.404       .  A
C748        H753   1.084       .  S
C749        C750   1.418       .  A
C750        S754   1.803   1_556  S
C751        C756   1.413       .  A
C751        C760   1.402   1_655  A
S752        H768   1.405       .  S
S754        H765   1.407       .  S
C756        C757   1.412   1_655  A
C756        S761   1.804       .  S
C757        C758   1.405       .  A
C757        H762   1.083   1_455  S
C758        C759   1.414       .  A
C759        C760   1.401       .  A
C759        S763   1.810       .  S
C760        H764   1.083       .  S
S761        H766   1.407       .  S
S763        H767   1.407       .  S
C769        C770   1.402       .  A
C769        C774   1.401       .  A
C769        H779   1.084       .  S
C770        C775   1.482       .  S
C770        C771   1.411       .  A
C771        C772   1.400       .  A
C771        S776   1.805   1_655  S
C772        C773   1.408       .  A
C772        H777   1.083       .  S
C773        C774   1.418       .  A
C774        S778   1.803       .  S
C775        C780   1.411       .  A
C775        C784   1.400   1_655  A
S776        H792   1.405       .  S
S778        H789   1.405       .  S
C780        C781   1.407   1_655  A
C780        S785   1.805       .  S
C781        C782   1.404       .  A
C781        H786   1.083       .  S
C782        C783   1.415       .  A
C783        C784   1.397       .  A
C783        S787   1.805       .  S
C784        H788   1.084       .  S
S785        H790   1.407       .  S
S787        H791   1.406       .  S
C793        C794   1.396       .  A
C793        C798   1.397       .  A
C793        H803   1.084       .  S
C794        C799   1.464       .  S
C794        C795   1.408       .  A
C795        C796   1.389       .  A
C795        S800   1.806       .  S
C796        C797   1.406       .  A
C796        H801   1.083       .  S
C797        C798   1.423       .  A
C798        S802   1.803       .  S
C799        C804   1.406       .  A
C799        C808   1.396       .  A
S800        H816   1.405       .  S
S802        H813   1.408       .  S
C804        C805   1.395       .  A
C804        S809   1.808       .  S
C805        C806   1.404       .  A
C805        H810   1.083       .  S
C806        C807   1.420       .  A
C807        C808   1.399       .  A
C807        S811   1.810       .  S
C808        H812   1.083       .  S
S809        H814   1.407       .  S
S811        H815   1.407       .  S
C817        C818   1.400       .  A
C817        C822   1.400       .  A
C817        H827   1.084       .  S
C818        C823   1.483       .  S
C818        C819   1.415       .  A
C819        C820   1.400       .  A
C819        S824   1.805       .  S
C820        C821   1.404       .  A
C820        H825   1.084       .  S
C821        C822   1.421       .  A
C822        S826   1.803       .  S
C823        C828   1.412       .  A
C823        C832   1.402       .  A
S824        H840   1.406       .  S
S826        H837   1.408       .  S
C828        C829   1.404       .  A
C828        S833   1.807       .  S
C829        C830   1.402       .  A
C829        H834   1.083       .  S
C830        C831   1.411       .  A
C831        C832   1.398       .  A
C831        S835   1.803       .  S
C832        H836   1.084       .  S
S833        H838   1.407       .  S
S835        H839   1.407       .  S
C841        C842   1.409       .  A
C841        C846   1.411       .  A
C841        H851   1.083       .  S
C842        C847   1.500       .  S
C842        C843   1.415       .  A
C843        C844   1.400       .  A
C843        S848   1.805       .  S
C844        C845   1.405       .  A
C844        H849   1.084       .  S
C845        C846   1.416       .  A
C846        S850   1.802       .  S
C847        C852   1.413   1_556  A
C847        C856   1.408       .  A
S848        H864   1.406       .  S
S850        H861   1.406       .  S
C852        C853   1.409       .  A
C852        S857   1.806       .  S
C853        C854   1.406       .  A
C853        H858   1.083       .  S
C854        C855   1.412   1_554  A
C855        C856   1.405       .  A
C855        S859   1.803       .  S
C856        H860   1.084       .  S
S857        H862   1.407       .  S
S859        H863   1.406   1_556  S
C865        C866   1.401       .  A
C865        C870   1.392       .  A
C865        H875   1.084       .  S
C866        C871   1.464       .  S
C866        C867   1.404       .  A
C867        C868   1.393       .  A
C867        S872   1.803       .  S
C868        C869   1.409       .  A
C868        H873   1.084       .  S
C869        C870   1.413       .  A
C870        S874   1.803       .  S
C871        C876   1.402       .  A
C871        C880   1.400       .  A
S872        H888   1.406       .  S
S874        H885   1.405       .  S
C876        C877   1.395       .  A
C876        S881   1.806       .  S
C877        C878   1.408       .  A
C877        H882   1.082       .  S
C878        C879   1.413       .  A
C879        C880   1.397       .  A
C879        S883   1.809       .  S
C880        H884   1.083       .  S
S881        H886   1.407       .  S
S883        H887   1.407       .  S
C889        C890   1.405       .  A
C889        C894   1.403       .  A
C889        H899   1.084       .  S
C890        C895   1.490       .  S
C890        C891   1.413       .  A
C891        C892   1.405       .  A
C891        S896   1.803       .  S
C892        C893   1.406       .  A
C892        H897   1.084       .  S
C893        C894   1.412       .  A
C894        S898   1.803       .  S
C895        C900   1.411       .  A
C895        C904   1.403       .  A
S896        H912   1.405       .  S
S898        H909   1.404       .  S
C900        C901   1.406       .  A
C900        S905   1.807       .  S
C901        C902   1.408       .  A
C901        H906   1.083       .  S
C902        C903   1.415       .  A
C903        C904   1.405       .  A
C903        S907   1.798       .  S
C904        H908   1.084       .  S
S905        H910   1.407       .  S
S907        H911   1.406       .  S
C913        C914   1.399       .  A
C913        C918   1.400       .  A
C913        H923   1.083       .  S
C914        C919   1.480       .  S
C914        C915   1.413       .  A
C915        C916   1.403       .  A
C915        S920   1.802       .  S
C916        C917   1.402       .  A
C916        H921   1.084       .  S
C917        C918   1.416       .  A
C918        S922   1.810       .  S
C919        C924   1.410       .  A
C919        C928   1.401       .  A
S920        H936   1.406       .  S
S922        H933   1.407       .  S
C924        C925   1.401       .  A
C924        S929   1.808       .  S
C925        C926   1.404       .  A
C925        H930   1.083       .  S
C926        C927   1.418       .  A
C927        C928   1.403       .  A
C927        S931   1.804       .  S
C928        H932   1.084       .  S
S929        H934   1.407       .  S
S931        H935   1.407       .  S
C937        C938   1.406       .  A
C937        C942   1.406       .  A
C937        H947   1.084       .  S
C938        C943   1.496       .  S
C938        C939   1.419       .  A
C939        C940   1.403       .  A
C939        S944   1.804       .  S
C940        C941   1.401       .  A
C940        H945   1.084       .  S
C941        C942   1.415       .  A
C942        S946   1.805       .  S
C943        C948   1.414       .  A
C943        C952   1.404       .  A
S944        H960   1.406       .  S
S946        H957   1.407       .  S
C948        C949   1.411       .  A
C948        S953   1.806       .  S
C949        C950   1.406       .  A
C949        H954   1.083       .  S
C950        C951   1.413       .  A
C951        C952   1.402       .  A
C951        S955   1.803       .  S
C952        H956   1.084       .  S
S953        H958   1.407       .  S
S955        H959   1.407       .  S
C961        C962   1.406       .  A
C961        C966   1.401       .  A
C961        H971   1.084       .  S
C962        C967   1.486       .  S
C962        C963   1.413       .  A
C963        C964   1.399       .  A
C963        S968   1.804   1_556  S
C964        C965   1.404       .  A
C964        H969   1.084       .  S
C965        C966   1.411       .  A
C966        S970   1.802       .  S
C967        C972   1.408       .  A
C967        C976   1.404       .  A
S968        H984   1.406       .  S
S970        H981   1.405       .  S
C972        C973   1.404       .  A
C972        S977   1.807       .  S
C973        C974   1.410       .  A
C973        H978   1.082       .  S
C974        C975   1.416   1_556  A
C975        C976   1.400   1_554  A
C975        S979   1.803       .  S
C976        H980   1.084       .  S
S977        H982   1.407       .  S
S979        H983   1.406       .  S
C985        C986   1.401       .  A
C985        C990   1.390       .  A
C985        H995   1.085       .  S
C986        C991   1.460       .  S
C986        C987   1.403       .  A
C987        C988   1.392       .  A
C987        S992   1.804       .  S
C988        C989   1.409       .  A
C988        H993   1.084       .  S
C989        C990   1.413       .  A
C990        S994   1.803       .  S
C991        C996   1.403       .  A
C991       C1000   1.401       .  A
S992       H1008   1.406       .  S
S994       H1005   1.402       .  S
C996        C997   1.392       .  A
C996       S1001   1.807       .  S
C997        C998   1.405       .  A
C997       H1002   1.083       .  S
C998        C999   1.409       .  A
C999       C1000   1.394       .  A
C999       S1003   1.803       .  S
C1000      H1004   1.084       .  S
S1001      H1006   1.407       .  S
S1003      H1007   1.407       .  S
C1009      C1010   1.398       .  A
C1009      C1014   1.392       .  A
C1009      H1019   1.084       .  S
C1010      C1015   1.461       .  S
C1010      C1011   1.409       .  A
C1011      C1012   1.391       .  A
C1011      S1016   1.804       .  S
C1012      C1013   1.400       .  A
C1012      H1017   1.083       .  S
C1013      C1014   1.413       .  A
C1014      S1018   1.800       .  S
C1015      C1020   1.405       .  A
C1015      C1024   1.398       .  A
S1016      H1032   1.406       .  S
S1018      H1029   1.407       .  S
C1020      C1021   1.387       .  A
C1020      S1025   1.811       .  S
C1021      C1022   1.404       .  A
C1021      H1026   1.082       .  S
C1022      C1023   1.418       .  A
C1023      C1024   1.402       .  A
C1023      S1027   1.809       .  S
C1024      H1028   1.083       .  S
S1025      H1030   1.407       .  S
S1027      H1031   1.407       .  S
C1033      C1034   1.405       .  A
C1033      C1038   1.405       .  A
C1033      H1043   1.084       .  S
C1034      C1039   1.493       .  S
C1034      C1035   1.413       .  A
C1035      C1036   1.402       .  A
C1035      S1040   1.804   1_655  S
C1036      C1037   1.407       .  A
C1036      H1041   1.082       .  S
C1037      C1038   1.416       .  A
C1038      S1042   1.799       .  S
C1039      C1044   1.412       .  A
C1039      C1048   1.405       .  A
S1040      H1056   1.406   1_455  S
S1042      H1053   1.407       .  S
C1044      C1045   1.403   1_565  A
C1044      S1049   1.809       .  S
C1045      C1046   1.407       .  A
C1045      H1050   1.081       .  S
C1046      C1047   1.416   1_545  A
C1047      C1048   1.407       .  A
C1047      S1051   1.799       .  S
C1048      H1052   1.084       .  S
S1049      H1054   1.406   1_565  S
S1051      H1055   1.407   1_565  S
C1057      C1058   1.403   1_556  A
C1057      C1062   1.399       .  A
C1057      H1067   1.084       .  S
C1058      C1063   1.483       .  S
C1058      C1059   1.412       .  A
C1059      C1060   1.400       .  A
C1059      S1064   1.804       .  S
C1060      C1061   1.405   1_554  A
C1060      H1065   1.083       .  S
C1061      C1062   1.416       .  A
C1062      S1066   1.804       .  S
C1063      C1068   1.409       .  A
C1063      C1072   1.403       .  A
S1064      H1080   1.406       .  S
S1066      H1077   1.405       .  S
C1068      C1069   1.402       .  A
C1068      S1073   1.807       .  S
C1069      C1070   1.408       .  A
C1069      H1074   1.083       .  S
C1070      C1071   1.416       .  A
C1071      C1072   1.400       .  A
C1071      S1075   1.802       .  S
C1072      H1076   1.084       .  S
S1073      H1078   1.407       .  S
S1075      H1079   1.407       .  S
C1081      C1082   1.405       .  A
C1081      C1086   1.402       .  A
C1081      H1091   1.084       .  S
C1082      C1087   1.483       .  S
C1082      C1083   1.410       .  A
C1083      C1084   1.399       .  A
C1083      S1088   1.804       .  S
C1084      C1085   1.406   1_565  A
C1084      H1089   1.084   1_565  S
C1085      C1086   1.413   1_545  A
C1086      S1090   1.804   1_564  S
C1087      C1092   1.410       .  A
C1087      C1096   1.402       .  A
S1088      H1104   1.406       .  S
S1090      H1101   1.407       .  S
C1092      C1093   1.406       .  A
C1092      S1097   1.805       .  S
C1093      C1094   1.402       .  A
C1093      H1098   1.082       .  S
C1094      C1095   1.410       .  A
C1095      C1096   1.402       .  A
C1095      S1099   1.809       .  S
C1096      H1100   1.083       .  S
S1097      H1102   1.407       .  S
S1099      H1103   1.407       .  S
C1105      C1106   1.401       .  A
C1105      C1110   1.401   1_556  A
C1105      H1115   1.084       .  S
C1106      C1111   1.481       .  S
C1106      C1107   1.413   1_556  A
C1107      C1108   1.398       .  A
C1107      S1112   1.806   1_554  S
C1108      C1109   1.406       .  A
C1108      H1113   1.084       .  S
C1109      C1110   1.419       .  A
C1110      S1114   1.803   1_455  S
C1111      C1116   1.412       .  A
C1111      C1120   1.400       .  A
S1112      H1128   1.406       .  S
S1114      H1125   1.408       .  S
C1116      C1117   1.405       .  A
C1116      S1121   1.806       .  S
C1117      C1118   1.403       .  A
C1117      H1122   1.083       .  S
C1118      C1119   1.413       .  A
C1119      C1120   1.396       .  A
C1119      S1123   1.806       .  S
C1120      H1124   1.084       .  S
S1121      H1126   1.407       .  S
S1123      H1127   1.405       .  S
C1129      C1130   1.404   1_554  A
C1129      C1134   1.404       .  A
C1129      H1139   1.084       .  S
C1130      C1135   1.499       .  S
C1130      C1131   1.417       .  A
C1131      C1132   1.410   1_556  A
C1131      S1136   1.803       .  S
C1132      C1133   1.407       .  A
C1132      H1137   1.084       .  S
C1133      C1134   1.418       .  A
C1134      S1138   1.804       .  S
C1135      C1140   1.415       .  A
C1135      C1144   1.404       .  A
S1136      H1152   1.406       .  S
S1138      H1149   1.407       .  S
C1140      C1141   1.411       .  A
C1140      S1145   1.807       .  S
C1141      C1142   1.405       .  A
C1141      H1146   1.083       .  S
C1142      C1143   1.417       .  A
C1143      C1144   1.406       .  A
C1143      S1147   1.804       .  S
C1144      H1148   1.084       .  S
S1145      H1150   1.407       .  S
S1147      H1151   1.407       .  S
C1153      C1154   1.404       .  A
C1153      C1158   1.401       .  A
C1153      H1163   1.084       .  S
C1154      C1159   1.496       .  S
C1154      C1155   1.417   1_565  A
C1155      C1156   1.407       .  A
C1155      S1160   1.803       .  S
C1156      C1157   1.404       .  A
C1156      H1161   1.084       .  S
C1157      C1158   1.414   1_545  A
C1158      S1162   1.804       .  S
C1159      C1164   1.417       .  A
C1159      C1168   1.404       .  A
S1160      H1176   1.406       .  S
S1162      H1173   1.407       .  S
C1164      C1165   1.410       .  A
C1164      S1169   1.807       .  S
C1165      C1166   1.403       .  A
C1165      H1170   1.083       .  S
C1166      C1167   1.415       .  A
C1167      C1168   1.403       .  A
C1167      S1171   1.803       .  S
C1168      H1172   1.084       .  S
S1169      H1174   1.407       .  S
S1171      H1175   1.407       .  S
C1177      C1178   1.401       .  A
C1177      C1182   1.397       .  A
C1177      H1187   1.084       .  S
C1178      C1183   1.479       .  S
C1178      C1179   1.412       .  A
C1179      C1180   1.401       .  A
C1179      S1184   1.804       .  S
C1180      C1181   1.407       .  A
C1180      H1185   1.084       .  S
C1181      C1182   1.416       .  A
C1182      S1186   1.803       .  S
C1183      C1188   1.408   1_556  A
C1183      C1192   1.401       .  A
S1184      H1200   1.405   1_556  S
S1186      H1197   1.405       .  S
C1188      C1189   1.402       .  A
C1188      S1193   1.807       .  S
C1189      C1190   1.407       .  A
C1189      H1194   1.081       .  S
C1190      C1191   1.418       .  A
C1191      C1192   1.400   1_554  A
C1191      S1195   1.804   1_554  S
C1192      H1196   1.084       .  S
S1193      H1198   1.407       .  S
S1195      H1199   1.407   1_556  S
C1201      C1202   1.401       .  A
C1201      C1206   1.399       .  A
C1201      H1211   1.084       .  S
C1202      C1207   1.486       .  S
C1202      C1203   1.416       .  A
C1203      C1204   1.403       .  A
C1203      S1208   1.804       .  S
C1204      C1205   1.402       .  A
C1204      H1209   1.084       .  S
C1205      C1206   1.414       .  A
C1206      S1210   1.804       .  S
C1207      C1212   1.411       .  A
C1207      C1216   1.402       .  A
S1208      H1224   1.406       .  S
S1210      H1221   1.405       .  S
C1212      C1213   1.400       .  A
C1212      S1217   1.810       .  S
C1213      C1214   1.406       .  A
C1213      H1218   1.082       .  S
C1214      C1215   1.419       .  A
C1215      C1216   1.408       .  A
C1215      S1219   1.809       .  S
C1216      H1220   1.083       .  S
S1217      H1222   1.406       .  S
S1219      H1223   1.407       .  S
C1225      C1226   1.399       .  A
C1225      C1230   1.396       .  A
C1225      H1235   1.083       .  S
C1226      C1231   1.459       .  S
C1226      C1227   1.410       .  A
C1227      C1228   1.390       .  A
C1227      S1232   1.803       .  S
C1228      C1229   1.396       .  A
C1228      H1233   1.083       .  S
C1229      C1230   1.409       .  A
C1230      S1234   1.809       .  S
C1231      C1236   1.406       .  A
C1231      C1240   1.396       .  A
S1232      H1248   1.405       .  S
S1234      H1245   1.407       .  S
C1236      C1237   1.390       .  A
C1236      S1241   1.811       .  S
C1237      C1238   1.403       .  A
C1237      H1242   1.082       .  S
C1238      C1239   1.418       .  A
C1239      C1240   1.396       .  A
C1239      S1243   1.802       .  S
C1240      H1244   1.084       .  S
S1241      H1246   1.407       .  S
S1243      H1247   1.407       .  S
C1249      C1250   1.405       .  A
C1249      C1254   1.407       .  A
C1249      H1259   1.084       .  S
C1250      C1255   1.495       .  S
C1250      C1251   1.417       .  A
C1251      C1252   1.404       .  A
C1251      S1256   1.805       .  S
C1252      C1253   1.402       .  A
C1252      H1257   1.084       .  S
C1253      C1254   1.416       .  A
C1254      S1258   1.804       .  S
C1255      C1260   1.413       .  A
C1255      C1264   1.404       .  A
S1256      H1272   1.406       .  S
S1258      H1269   1.407       .  S
C1260      C1261   1.410       .  A
C1260      S1265   1.805       .  S
C1261      C1262   1.405       .  A
C1261      H1266   1.082       .  S
C1262      C1263   1.414       .  A
C1263      C1264   1.404       .  A
C1263      S1267   1.803       .  S
C1264      H1268   1.084       .  S
S1265      H1270   1.407       .  S
S1267      H1271   1.407       .  S
C1273      C1274   1.400       .  A
C1273      C1278   1.398   1_545  A
C1273      H1283   1.084       .  S
C1274      C1279   1.476       .  S
C1274      C1275   1.413   1_545  A
C1275      C1276   1.401       .  A
C1275      S1280   1.807       .  S
C1276      C1277   1.406       .  A
C1276      H1281   1.084       .  S
C1277      C1278   1.418       .  A
C1278      S1282   1.803   1_565  S
C1279      C1284   1.409       .  A
C1279      C1288   1.399       .  A
S1280      H1296   1.403       .  S
S1282      H1293   1.403       .  S
C1284      C1285   1.405       .  A
C1284      S1289   1.805   1_545  S
C1285      C1286   1.405       .  A
C1285      H1290   1.083       .  S
C1286      C1287   1.415       .  A
C1287      C1288   1.396       .  A
C1287      S1291   1.803       .  S
C1288      H1292   1.084       .  S
S1289      H1294   1.407   1_565  S
S1291      H1295   1.402       .  S
C1297      C1298   1.403       .  A
C1297      C1302   1.405       .  A
C1297      H1307   1.083       .  S
C1298      C1303   1.484       .  S
C1298      C1299   1.408       .  A
C1299      C1300   1.400       .  A
C1299      S1304   1.803       .  S
C1300      C1301   1.410       .  A
C1300      H1305   1.083       .  S
C1301      C1302   1.418       .  A
C1302      S1306   1.810       .  S
C1303      C1308   1.409       .  A
C1303      C1312   1.404       .  A
S1304      H1320   1.406       .  S
S1306      H1317   1.406       .  S
C1308      C1309   1.403       .  A
C1308      S1313   1.806       .  S
C1309      C1310   1.405       .  A
C1309      H1314   1.083       .  S
C1310      C1311   1.412       .  A
C1311      C1312   1.401       .  A
C1311      S1315   1.802       .  S
C1312      H1316   1.084       .  S
S1313      H1318   1.407       .  S
S1315      H1319   1.404       .  S
C1321      C1322   1.405       .  A
C1321      C1326   1.400       .  A
C1321      H1331   1.084       .  S
C1322      C1327   1.487       .  S
C1322      C1323   1.411       .  A
C1323      C1324   1.401       .  A
C1323      S1328   1.804       .  S
C1324      C1325   1.409       .  A
C1324      H1329   1.084       .  S
C1325      C1326   1.414       .  A
C1326      S1330   1.803       .  S
C1327      C1332   1.410       .  A
C1327      C1336   1.405       .  A
S1328      H1344   1.406       .  S
S1330      H1341   1.407       .  S
C1332      C1333   1.402       .  A
C1332      S1337   1.807       .  S
C1333      C1334   1.404       .  A
C1333      H1338   1.083       .  S
C1334      C1335   1.410       .  A
C1335      C1336   1.405       .  A
C1335      S1339   1.807       .  S
C1336      H1340   1.083       .  S
S1337      H1342   1.407       .  S
S1339      H1343   1.407       .  S
C1345      C1346   1.404       .  A
C1345      C1350   1.403       .  A
C1345      H1355   1.084       .  S
C1346      C1351   1.494       .  S
C1346      C1347   1.415       .  A
C1347      C1348   1.406       .  A
C1347      S1352   1.804       .  S
C1348      C1349   1.405       .  A
C1348      H1353   1.084       .  S
C1349      C1350   1.412       .  A
C1350      S1354   1.803       .  S
C1351      C1356   1.415       .  A
C1351      C1360   1.404       .  A
S1352      H1368   1.406       .  S
S1354      H1365   1.407       .  S
C1356      C1357   1.408       .  A
C1356      S1361   1.807       .  S
C1357      C1358   1.402       .  A
C1357      H1362   1.083       .  S
C1358      C1359   1.415       .  A
C1359      C1360   1.404       .  A
C1359      S1363   1.803       .  S
C1360      H1364   1.084       .  S
S1361      H1366   1.407       .  S
S1363      H1367   1.407       .  S
C1369      C1370   1.405       .  A
C1369      C1374   1.411       .  A
C1369      H1379   1.083       .  S
C1370      C1375   1.501       .  S
C1370      C1371   1.418       .  A
C1371      C1372   1.407       .  A
C1371      S1376   1.804       .  S
C1372      C1373   1.404       .  A
C1372      H1377   1.084       .  S
C1373      C1374   1.416       .  A
C1374      S1378   1.807       .  S
C1375      C1380   1.414       .  A
C1375      C1384   1.404       .  A
S1376      H1392   1.406       .  S
S1378      H1389   1.407       .  S
C1380      C1381   1.413       .  A
C1380      S1385   1.805       .  S
C1381      C1382   1.406       .  A
C1381      H1386   1.082       .  S
C1382      C1383   1.414       .  A
C1383      C1384   1.407       .  A
C1383      S1387   1.808       .  S
C1384      H1388   1.083       .  S
S1385      H1390   1.407       .  S
S1387      H1391   1.407       .  S
C1393      C1394   1.401   1_545  A
C1393      C1398   1.396       .  A
C1393      H1403   1.084       .  S
C1394      C1399   1.472       .  S
C1394      C1395   1.410       .  A
C1395      C1396   1.398       .  A
C1395      S1400   1.805       .  S
C1396      C1397   1.405   1_565  A
C1396      H1401   1.084       .  S
C1397      C1398   1.413       .  A
C1398      S1402   1.804       .  S
C1399      C1404   1.406       .  A
C1399      C1408   1.400       .  A
S1400      H1416   1.404       .  S
S1402      H1413   1.407       .  S
C1404      C1405   1.400       .  A
C1404      S1409   1.807       .  S
C1405      C1406   1.406       .  A
C1405      H1410   1.083       .  S
C1406      C1407   1.416       .  A
C1407      C1408   1.398       .  A
C1407      S1411   1.802       .  S
C1408      H1412   1.084       .  S
S1409      H1414   1.407       .  S
S1411      H1415   1.407       .  S
C1417      C1418   1.402       .  A
C1417      C1422   1.396       .  A
C1417      H1427   1.084       .  S
C1418      C1423   1.479       .  S
C1418      C1419   1.411       .  A
C1419      C1420   1.399       .  A
C1419      S1424   1.803       .  S
C1420      C1421   1.402       .  A
C1420      H1425   1.082       .  S
C1421      C1422   1.411       .  A
C1422      S1426   1.803       .  S
C1423      C1428   1.406       .  A
C1423      C1432   1.406       .  A
S1424      H1440   1.407       .  S
S1426      H1437   1.405       .  S
C1428      C1429   1.400       .  A
C1428      S1433   1.807       .  S
C1429      C1430   1.408       .  A
C1429      H1434   1.083       .  S
C1430      C1431   1.411       .  A
C1431      C1432   1.400       .  A
C1431      S1435   1.803   1_565  S
C1432      H1436   1.084       .  S
S1433      H1438   1.407       .  S
S1435      H1439   1.407       .  S
C1441      C1442   1.399       .  A
C1441      C1446   1.391       .  A
C1441      H1451   1.085       .  S
C1442      C1447   1.456       .  S
C1442      C1443   1.401       .  A
C1443      C1444   1.389       .  A
C1443      S1448   1.804       .  S
C1444      C1445   1.410       .  A
C1444      H1449   1.083       .  S
C1445      C1446   1.416       .  A
C1446      S1450   1.804       .  S
C1447      C1452   1.400       .  A
C1447      C1456   1.400       .  A
S1448      H1464   1.406       .  S
S1450      H1461   1.405       .  S
C1452      C1453   1.392       .  A
C1452      S1457   1.807       .  S
C1453      C1454   1.406       .  A
C1453      H1458   1.083       .  S
C1454      C1455   1.409       .  A
C1455      C1456   1.395       .  A
C1455      S1459   1.808       .  S
C1456      H1460   1.083       .  S
S1457      H1462   1.407       .  S
S1459      H1463   1.407       .  S
C1465      C1466   1.400       .  A
C1465      C1470   1.397       .  A
C1465      H1475   1.085       .  S
C1466      C1471   1.493       .  S
C1466      C1467   1.416       .  A
C1467      C1468   1.411       .  A
C1467      S1472   1.802       .  S
C1468      C1469   1.408       .  A
C1468      H1473   1.084       .  S
C1469      C1470   1.420       .  A
C1470      S1474   1.802       .  S
C1471      C1476   1.414       .  A
C1471      C1480   1.402       .  A
S1472      H1488   1.406       .  S
S1474      H1485   1.402       .  S
C1476      C1477   1.409       .  A
C1476      S1481   1.805       .  S
C1477      C1478   1.403       .  A
C1477      H1482   1.083       .  S
C1478      C1479   1.415       .  A
C1479      C1480   1.402       .  A
C1479      S1483   1.803       .  S
C1480      H1484   1.084       .  S
S1481      H1486   1.407       .  S
S1483      H1487   1.406       .  S
C1489      C1490   1.402       .  A
C1489      C1494   1.402       .  A
C1489      H1499   1.084       .  S
C1490      C1495   1.488       .  S
C1490      C1491   1.417       .  A
C1491      C1492   1.404       .  A
C1491      S1496   1.805       .  S
C1492      C1493   1.403       .  A
C1492      H1497   1.084       .  S
C1493      C1494   1.414       .  A
C1494      S1498   1.804       .  S
C1495      C1500   1.411   1_554  A
C1495      C1504   1.402       .  A
S1496      H1512   1.405       .  S
S1498      H1509   1.407       .  S
C1500      C1501   1.410       .  A
C1500      S1505   1.805       .  S
C1501      C1502   1.405       .  A
C1501      H1506   1.081       .  S
C1502      C1503   1.413   1_556  A
C1503      C1504   1.399       .  A
C1503      S1507   1.804       .  S
C1504      H1508   1.084       .  S
S1505      H1510   1.407       .  S
S1507      H1511   1.407       .  S
C1513      C1514   1.401       .  A
C1513      C1518   1.401       .  A
C1513      H1523   1.083       .  S
C1514      C1519   1.477       .  S
C1514      C1515   1.409       .  A
C1515      C1516   1.396       .  A
C1515      S1520   1.804       .  S
C1516      C1517   1.406       .  A
C1516      H1521   1.084       .  S
C1517      C1518   1.417       .  A
C1518      S1522   1.809       .  S
C1519      C1524   1.408       .  A
C1519      C1528   1.400       .  A
S1520      H1536   1.406       .  S
S1522      H1533   1.407       .  S
C1524      C1525   1.401       .  A
C1524      S1529   1.807       .  S
C1525      C1526   1.406       .  A
C1525      H1530   1.083       .  S
C1526      C1527   1.418       .  A
C1527      C1528   1.397       .  A
C1527      S1531   1.804       .  S
C1528      H1532   1.084       .  S
S1529      H1534   1.407       .  S
S1531      H1535   1.407       .  S
C1537      C1538   1.401       .  A
C1537      C1542   1.401       .  A
C1537      H1547   1.083       .  S
C1538      C1543   1.483       .  S
C1538      C1539   1.415       .  A
C1539      C1540   1.402       .  A
C1539      S1544   1.804       .  S
C1540      C1541   1.402       .  A
C1540      H1545   1.084       .  S
C1541      C1542   1.411       .  A
C1542      S1546   1.807       .  S
C1543      C1548   1.411       .  A
C1543      C1552   1.402       .  A
S1544      H1560   1.406       .  S
S1546      H1557   1.407       .  S
C1548      C1549   1.401       .  A
C1548      S1553   1.809       .  S
C1549      C1550   1.405       .  A
C1549      H1554   1.083       .  S
C1550      C1551   1.417       .  A
C1551      C1552   1.402       .  A
C1551      S1555   1.804       .  S
C1552      H1556   1.084       .  S
S1553      H1558   1.407       .  S
S1555      H1559   1.407       .  S
C1561      C1562   1.405       .  A
C1561      C1566   1.402       .  A
C1561      H1571   1.084       .  S
C1562      C1567   1.488       .  S
C1562      C1563   1.410       .  A
C1563      C1564   1.402       .  A
C1563      S1568   1.804       .  S
C1564      C1565   1.410       .  A
C1564      H1569   1.084       .  S
C1565      C1566   1.417       .  A
C1566      S1570   1.803       .  S
C1567      C1572   1.410       .  A
C1567      C1576   1.405       .  A
S1568      H1584   1.406       .  S
S1570      H1581   1.404       .  S
C1572      C1573   1.403       .  A
C1572      S1577   1.807       .  S
C1573      C1574   1.404       .  A
C1573      H1578   1.083       .  S
C1574      C1575   1.411       .  A
C1575      C1576   1.407       .  A
C1575      S1579   1.806       .  S
C1576      H1580   1.083       .  S
S1577      H1582   1.407       .  S
S1579      H1583   1.407       .  S
C1585      C1586   1.403       .  A
C1585      C1590   1.403       .  A
C1585      H1595   1.083       .  S
C1586      C1591   1.488       .  S
C1586      C1587   1.414       .  A
C1587      C1588   1.404       .  A
C1587      S1592   1.803       .  S
C1588      C1589   1.403       .  A
C1588      H1593   1.082       .  S
C1589      C1590   1.412       .  A
C1590      S1594   1.807       .  S
C1591      C1596   1.414       .  A
C1591      C1600   1.402       .  A
S1592      H1608   1.406       .  S
S1594      H1605   1.407       .  S
C1596      C1597   1.406       .  A
C1596      S1601   1.808       .  S
C1597      C1598   1.402       .  A
C1597      H1602   1.083       .  S
C1598      C1599   1.414       .  A
C1599      C1600   1.402       .  A
C1599      S1603   1.803       .  S
C1600      H1604   1.084       .  S
S1601      H1606   1.407       .  S
S1603      H1607   1.407       .  S
C1609      C1610   1.404       .  A
C1609      C1614   1.404       .  A
C1609      H1619   1.083       .  S
C1610      C1615   1.497       .  S
C1610      C1611   1.416       .  A
C1611      C1612   1.410       .  A
C1611      S1616   1.802       .  S
C1612      C1613   1.407       .  A
C1612      H1617   1.084       .  S
C1613      C1614   1.416       .  A
C1614      S1618   1.808       .  S
C1615      C1620   1.414       .  A
C1615      C1624   1.403       .  A
S1616      H1632   1.406       .  S
S1618      H1629   1.407       .  S
C1620      C1621   1.409   1_554  A
C1620      S1625   1.806       .  S
C1621      C1622   1.404       .  A
C1621      H1626   1.083       .  S
C1622      C1623   1.415   1_556  A
C1623      C1624   1.404       .  A
C1623      S1627   1.803       .  S
C1624      H1628   1.084       .  S
S1625      H1630   1.407   1_554  S
S1627      H1631   1.405       .  S
C1633      C1634   1.401       .  A
C1633      C1638   1.398       .  A
C1633      H1643   1.084       .  S
C1634      C1639   1.475       .  S
C1634      C1635   1.411       .  A
C1635      C1636   1.398       .  A
C1635      S1640   1.804       .  S
C1636      C1637   1.404       .  A
C1636      H1641   1.084       .  S
C1637      C1638   1.414       .  A
C1638      S1642   1.805       .  S
C1639      C1644   1.410       .  A
C1639      C1648   1.400       .  A
S1640      H1656   1.405       .  S
S1642      H1653   1.406       .  S
C1644      C1645   1.403       .  A
C1644      S1649   1.807       .  S
C1645      C1646   1.403       .  A
C1645      H1650   1.083       .  S
C1646      C1647   1.413       .  A
C1647      C1648   1.397       .  A
C1647      S1651   1.803       .  S
C1648      H1652   1.084       .  S
S1649      H1654   1.407       .  S
S1651      H1655   1.403       .  S
C1657      C1658   1.401       .  A
C1657      C1662   1.398       .  A
C1657      H1667   1.084       .  S
C1658      C1663   1.481       .  S
C1658      C1659   1.414       .  A
C1659      C1660   1.401       .  A
C1659      S1664   1.803       .  S
C1660      C1661   1.401       .  A
C1660      H1665   1.083       .  S
C1661      C1662   1.414       .  A
C1662      S1666   1.805       .  S
C1663      C1668   1.410       .  A
C1663      C1672   1.401       .  A
S1664      H1680   1.406       .  S
S1666      H1677   1.407       .  S
C1668      C1669   1.400   1_554  A
C1668      S1673   1.809       .  S
C1669      C1670   1.406       .  A
C1669      H1674   1.082       .  S
C1670      C1671   1.419   1_556  A
C1671      C1672   1.406       .  A
C1671      S1675   1.809       .  S
C1672      H1676   1.083       .  S
S1673      H1678   1.407   1_554  S
S1675      H1679   1.407       .  S
C1681      C1682   1.399       .  A
C1681      C1686   1.395       .  A
C1681      H1691   1.083       .  S
C1682      C1687   1.460       .  S
C1682      C1683   1.403       .  A
C1683      C1684   1.392       .  A
C1683      S1688   1.803       .  S
C1684      C1685   1.408       .  A
C1684      H1689   1.084       .  S
C1685      C1686   1.416       .  A
C1686      S1690   1.811       .  S
C1687      C1692   1.401       .  A
C1687      C1696   1.400       .  A
S1688      H1704   1.406       .  S
S1690      H1701   1.407       .  S
C1692      C1693   1.394       .  A
C1692      S1697   1.807       .  S
C1693      C1694   1.408       .  A
C1693      H1698   1.083       .  S
C1694      C1695   1.412       .  A
C1695      C1696   1.394       .  A
C1695      S1699   1.804       .  S
C1696      H1700   1.084       .  S
S1697      H1702   1.407       .  S
S1699      H1703   1.408       .  S
C1705      C1706   1.401       .  A
C1705      C1710   1.398       .  A
C1705      H1715   1.084       .  S
C1706      C1711   1.482       .  S
C1706      C1707   1.415       .  A
C1707      C1708   1.402       .  A
C1707      S1712   1.804       .  S
C1708      C1709   1.402       .  A
C1708      H1713   1.081       .  S
C1709      C1710   1.413       .  A
C1710      S1714   1.804       .  S
C1711      C1716   1.410       .  A
C1711      C1720   1.402       .  A
S1712      H1728   1.406       .  S
S1714      H1725   1.408       .  S
C1716      C1717   1.401       .  A
C1716      S1721   1.810       .  S
C1717      C1718   1.407       .  A
C1717      H1722   1.082       .  S
C1718      C1719   1.419       .  A
C1719      C1720   1.404       .  A
C1719      S1723   1.803       .  S
C1720      H1724   1.084       .  S
S1721      H1726   1.407       .  S
S1723      H1727   1.407       .  S
C1729      C1730   1.403       .  A
C1729      C1734   1.404       .  A
C1729      H1739   1.084       .  S
C1730      C1735   1.493       .  S
C1730      C1731   1.415       .  A
C1731      C1732   1.407       .  A
C1731      S1736   1.803       .  S
C1732      C1733   1.405       .  A
C1732      H1737   1.084       .  S
C1733      C1734   1.415       .  A
C1734      S1738   1.804       .  S
C1735      C1740   1.413       .  A
C1735      C1744   1.404       .  A
S1736      H1752   1.405       .  S
S1738      H1749   1.407       .  S
C1740      C1741   1.407       .  A
C1740      S1745   1.807       .  S
C1741      C1742   1.403       .  A
C1741      H1746   1.083       .  S
C1742      C1743   1.415       .  A
C1743      C1744   1.406       .  A
C1743      S1747   1.805       .  S
C1744      H1748   1.083       .  S
S1745      H1750   1.407       .  S
S1747      H1751   1.406       .  S
C1753      C1754   1.405   1_565  A
C1753      C1758   1.403       .  A
C1753      H1763   1.084       .  S
C1754      C1759   1.496       .  S
C1754      C1755   1.417       .  A
C1755      C1756   1.407       .  A
C1755      S1760   1.804       .  S
C1756      C1757   1.405   1_545  A
C1756      H1761   1.082       .  S
C1757      C1758   1.413       .  A
C1758      S1762   1.803       .  S
C1759      C1764   1.416       .  A
C1759      C1768   1.404       .  A
S1760      H1776   1.406       .  S
S1762      H1773   1.407       .  S
C1764      C1765   1.409       .  A
C1764      S1769   1.807       .  S
C1765      C1766   1.403       .  A
C1765      H1770   1.083       .  S
C1766      C1767   1.414       .  A
C1767      C1768   1.404       .  A
C1767      S1771   1.804       .  S
C1768      H1772   1.084       .  S
S1769      H1774   1.407       .  S
S1771      H1775   1.407       .  S
C1777      C1778   1.401       .  A
C1777      C1782   1.398       .  A
C1777      H1787   1.084       .  S
C1778      C1783   1.474       .  S
C1778      C1779   1.407       .  A
C1779      C1780   1.397       .  A
C1779      S1784   1.804       .  S
C1780      C1781   1.408       .  A
C1780      H1785   1.084       .  S
C1781      C1782   1.417       .  A
C1782      S1786   1.803       .  S
C1783      C1788   1.406       .  A
C1783      C1792   1.401       .  A
S1784      H1800   1.406       .  S
S1786      H1797   1.408       .  S
C1788      C1789   1.401       .  A
C1788      S1793   1.806       .  S
C1789      C1790   1.407       .  A
C1789      H1794   1.083       .  S
C1790      C1791   1.414       .  A
C1791      C1792   1.397       .  A
C1791      S1795   1.804       .  S
C1792      H1796   1.084       .  S
S1793      H1798   1.407       .  S
S1795      H1799   1.407       .  S
C1801      C1802   1.403       .  A
C1801      C1806   1.407   1_545  A
C1801      H1811   1.083       .  S
C1802      C1807   1.488       .  S
C1802      C1803   1.409       .  A
C1803      C1804   1.404   1_545  A
C1803      S1808   1.803       .  S
C1804      C1805   1.412       .  A
C1804      H1809   1.083       .  S
C1805      C1806   1.420       .  A
C1806      S1810   1.809       .  S
C1807      C1812   1.409       .  A
C1807      C1816   1.404       .  A
S1808      H1824   1.406       .  S
S1810      H1821   1.407       .  S
C1812      C1813   1.405       .  A
C1812      S1817   1.806       .  S
C1813      C1814   1.406       .  A
C1813      H1818   1.083       .  S
C1814      C1815   1.413       .  A
C1815      C1816   1.404       .  A
C1815      S1819   1.802       .  S
C1816      H1820   1.084       .  S
S1817      H1822   1.407       .  S
S1819      H1823   1.405       .  S
C1825      C1826   1.405       .  A
C1825      C1830   1.402       .  A
C1825      H1835   1.084       .  S
C1826      C1831   1.486       .  S
C1826      C1827   1.412       .  A
C1827      C1828   1.400       .  A
C1827      S1832   1.803       .  S
C1828      C1829   1.405       .  A
C1828      H1833   1.084       .  S
C1829      C1830   1.412       .  A
C1830      S1834   1.802       .  S
C1831      C1836   1.407       .  A
C1831      C1840   1.404       .  A
S1832      H1848   1.406       .  S
S1834      H1845   1.405       .  S
C1836      C1837   1.404       .  A
C1836      S1841   1.806       .  S
C1837      C1838   1.410       .  A
C1837      H1842   1.082       .  S
C1838      C1839   1.416       .  A
C1839      C1840   1.405       .  A
C1839      S1843   1.809       .  S
C1840      H1844   1.083       .  S
S1841      H1846   1.407       .  S
S1843      H1847   1.407       .  S
C1849      C1850   1.401       .  A
C1849      C1854   1.400       .  A
C1849      H1859   1.084       .  S
C1850      C1855   1.481       .  S
C1850      C1851   1.416       .  A
C1851      C1852   1.402       .  A
C1851      S1856   1.806       .  S
C1852      C1853   1.401       .  A
C1852      H1857   1.084       .  S
C1853      C1854   1.413       .  A
C1854      S1858   1.803   1_545  S
C1855      C1860   1.410       .  A
C1855      C1864   1.400       .  A
S1856      H1872   1.404       .  S
S1858      H1869   1.407       .  S
C1860      C1861   1.408       .  A
C1860      S1865   1.804       .  S
C1861      C1862   1.405       .  A
C1861      H1866   1.083       .  S
C1862      C1863   1.415       .  A
C1863      C1864   1.395       .  A
C1863      S1867   1.807       .  S
C1864      H1868   1.084       .  S
S1865      H1870   1.407       .  S
S1867      H1871   1.407       .  S
C1873      C1874   1.405       .  A
C1873      C1878   1.408       .  A
C1873      H1883   1.084       .  S
C1874      C1879   1.492   1_565  S
C1874      C1875   1.415   1_565  A
C1875      C1876   1.401   1_545  A
C1875      S1880   1.806       .  S
C1876      C1877   1.406       .  A
C1876      H1881   1.084   1_565  S
C1877      C1878   1.415       .  A
C1878      S1882   1.800       .  S
C1879      C1884   1.410       .  A
C1879      C1888   1.405       .  A
S1880      H1896   1.406       .  S
S1882      H1893   1.405       .  S
C1884      C1885   1.406       .  A
C1884      S1889   1.805       .  S
C1885      C1886   1.405       .  A
C1885      H1890   1.082       .  S
C1886      C1887   1.413       .  A
C1887      C1888   1.408       .  A
C1887      S1891   1.807       .  S
C1888      H1892   1.083       .  S
S1889      H1894   1.407       .  S
S1891      H1895   1.407       .  S
C1897      C1898   1.398       .  A
C1897      C1902   1.393       .  A
C1897      H1907   1.084       .  S
C1898      C1903   1.467       .  S
C1898      C1899   1.411       .  A
C1899      C1900   1.398       .  A
C1899      S1904   1.805       .  S
C1900      C1901   1.404       .  A
C1900      H1905   1.084       .  S
C1901      C1902   1.414       .  A
C1902      S1906   1.805       .  S
C1903      C1908   1.407       .  A
C1903      C1912   1.398       .  A
S1904      H1920   1.405       .  S
S1906      H1917   1.406       .  S
C1908      C1909   1.400       .  A
C1908      S1913   1.806       .  S
C1909      C1910   1.403       .  A
C1909      H1914   1.083       .  S
C1910      C1911   1.414       .  A
C1911      C1912   1.394       .  A
C1911      S1915   1.805       .  S
C1912      H1916   1.084       .  S
S1913      H1918   1.407       .  S
S1915      H1919   1.407       .  S
C1921      C1922   1.406       .  A
C1921      C1926   1.399       .  A
C1921      H1931   1.084       .  S
C1922      C1927   1.481       .  S
C1922      C1923   1.410       .  A
C1923      C1924   1.398       .  A
C1923      S1928   1.804       .  S
C1924      C1925   1.406       .  A
C1924      H1929   1.084       .  S
C1925      C1926   1.411       .  A
C1926      S1930   1.803       .  S
C1927      C1932   1.410       .  A
C1927      C1936   1.404       .  A
S1928      H1944   1.406       .  S
S1930      H1941   1.406       .  S
C1932      C1933   1.402       .  A
C1932      S1937   1.806       .  S
C1933      C1934   1.401       .  A
C1933      H1938   1.083       .  S
C1934      C1935   1.406       .  A
C1935      C1936   1.399       .  A
C1935      S1939   1.807       .  S
C1936      H1940   1.083       .  S
S1937      H1942   1.407       .  S
S1939      H1943   1.407       .  S
C1945      C1946   1.398       .  A
C1945      C1950   1.395       .  A
C1945      H1955   1.083       .  S
C1946      C1951   1.458       .  S
C1946      C1947   1.409       .  A
C1947      C1948   1.391       .  A
C1947      S1952   1.804       .  S
C1948      C1949   1.399       .  A
C1948      H1953   1.084       .  S
C1949      C1950   1.411       .  A
C1950      S1954   1.809       .  S
C1951      C1956   1.404       .  A
C1951      C1960   1.397       .  A
S1952      H1968   1.406       .  S
S1954      H1965   1.407       .  S
C1956      C1957   1.388       .  A
C1956      S1961   1.811       .  S
C1957      C1958   1.407       .  A
C1957      H1962   1.082       .  S
C1958      C1959   1.418       .  A
C1959      C1960   1.396       .  A
C1959      S1963   1.802       .  S
C1960      H1964   1.084       .  S
S1961      H1966   1.407       .  S
S1963      H1967   1.408       .  S
C1969      C1970   1.401       .  A
C1969      C1974   1.397       .  A
C1969      H1979   1.084       .  S
C1970      C1975   1.484       .  S
C1970      C1971   1.416       .  A
C1971      C1972   1.403       .  A
C1971      S1976   1.804       .  S
C1972      C1973   1.403       .  A
C1972      H1977   1.084       .  S
C1973      C1974   1.413       .  A
C1974      S1978   1.805       .  S
C1975      C1980   1.411       .  A
C1975      C1984   1.403       .  A
S1976      H1992   1.406       .  S
S1978      H1989   1.407       .  S
C1980      C1981   1.401       .  A
C1980      S1985   1.809       .  S
C1981      C1982   1.405       .  A
C1981      H1986   1.083       .  S
C1982      C1983   1.417       .  A
C1983      C1984   1.407       .  A
C1983      S1987   1.809       .  S
C1984      H1988   1.083       .  S
S1985      H1990   1.407       .  S
S1987      H1991   1.407       .  S
C1993      C1994   1.403       .  A
C1993      C1998   1.401       .  A
C1993      H2003   1.084       .  S
C1994      C1999   1.490       .  S
C1994      C1995   1.419       .  A
C1995      C1996   1.403       .  A
C1995      S2000   1.805       .  S
C1996      C1997   1.402       .  A
C1996      H2001   1.084       .  S
C1997      C1998   1.414       .  A
C1998      S2002   1.804       .  S
C1999      C2004   1.413       .  A
C1999      C2008   1.404       .  A
S2000      H2016   1.406       .  S
S2002      H2013   1.407       .  S
C2004      C2005   1.408       .  A
C2004      S2009   1.806       .  S
C2005      C2006   1.405       .  A
C2005      H2010   1.083       .  S
C2006      C2007   1.411       .  A
C2007      C2008   1.399       .  A
C2007      S2011   1.804       .  S
C2008      H2012   1.084       .  S
S2009      H2014   1.407       .  S
S2011      H2015   1.407       .  S
C2017      C2018   1.404       .  A
C2017      C2022   1.406       .  A
C2017      H2027   1.084       .  S
C2018      C2023   1.496       .  S
C2018      C2019   1.418       .  A
C2019      C2020   1.405       .  A
C2019      S2024   1.804       .  S
C2020      C2021   1.404       .  A
C2020      H2025   1.084       .  S
C2021      C2022   1.417       .  A
C2022      S2026   1.804       .  S
C2023      C2028   1.414   1_455  A
C2023      C2032   1.403       .  A
S2024      H2040   1.406       .  S
S2026      H2037   1.407       .  S
C2028      C2029   1.412       .  A
C2028      S2033   1.805       .  S
C2029      C2030   1.405       .  A
C2029      H2034   1.083       .  S
C2030      C2031   1.415   1_655  A
C2031      C2032   1.402       .  A
C2031      S2035   1.805       .  S
C2032      H2036   1.084       .  S
S2033      H2038   1.407       .  S
S2035      H2039   1.407       .  S
C2041      C2042   1.402       .  A
C2041      C2046   1.402       .  A
C2041      H2051   1.084       .  S
C2042      C2047   1.480       .  S
C2042      C2043   1.412       .  A
C2043      C2044   1.399       .  A
C2043      S2048   1.805       .  S
C2044      C2045   1.406       .  A
C2044      H2049   1.084       .  S
C2045      C2046   1.415       .  A
C2046      S2050   1.802       .  S
C2047      C2052   1.410       .  A
C2047      C2056   1.399       .  A
S2048      H2064   1.405       .  S
S2050      H2061   1.407       .  S
C2052      C2053   1.407       .  A
C2052      S2057   1.806       .  S
C2053      C2054   1.407       .  A
C2053      H2058   1.083       .  S
C2054      C2055   1.417       .  A
C2055      C2056   1.397       .  A
C2055      S2059   1.801       .  S
C2056      H2060   1.084       .  S
S2057      H2062   1.407       .  S
S2059      H2063   1.407       .  S
C2065      C2066   1.403       .  A
C2065      C2070   1.397       .  A
C2065      H2075   1.084       .  S
C2066      C2071   1.479       .  S
C2066      C2067   1.411       .  A
C2067      C2068   1.399       .  A
C2067      S2072   1.803       .  S
C2068      C2069   1.402       .  A
C2068      H2073   1.084       .  S
C2069      C2070   1.411       .  A
C2070      S2074   1.805       .  S
C2071      C2076   1.405       .  A
C2071      C2080   1.404       .  A
S2072      H2088   1.406       .  S
S2074      H2085   1.405       .  S
C2076      C2077   1.400       .  A
C2076      S2081   1.807       .  S
C2077      C2078   1.409       .  A
C2077      H2082   1.082       .  S
C2078      C2079   1.415       .  A
C2079      C2080   1.400       .  A
C2079      S2083   1.803       .  S
C2080      H2084   1.084       .  S
S2081      H2086   1.407       .  S
S2083      H2087   1.407       .  S
C2089      C2090   1.404       .  A
C2089      C2094   1.402       .  A
C2089      H2099   1.084       .  S
C2090      C2095   1.485       .  S
C2090      C2091   1.411       .  A
C2091      C2092   1.400       .  A
C2091      S2096   1.803       .  S
C2092      C2093   1.406       .  A
C2092      H2097   1.084       .  S
C2093      C2094   1.412       .  A
C2094      S2098   1.799       .  S
C2095      C2100   1.406       .  A
C2095      C2104   1.405       .  A
S2096      H2112   1.406       .  S
S2098      H2109   1.405       .  S
C2100      C2101   1.403       .  A
C2100      S2105   1.806       .  S
C2101      C2102   1.410       .  A
C2101      H2106   1.082       .  S
C2102      C2103   1.415       .  A
C2103      C2104   1.403       .  A
C2103      S2107   1.803       .  S
C2104      H2108   1.084       .  S
S2105      H2110   1.407       .  S
S2107      H2111   1.407       .  S
C2113      C2114   1.407       .  A
C2113      C2118   1.410       .  A
C2113      H2123   1.083       .  S
C2114      C2119   1.495       .  S
C2114      C2115   1.411       .  A
C2115      C2116   1.402       .  A
C2115      S2120   1.810       .  S
C2116      C2117   1.406       .  A
C2116      H2121   1.081       .  S
C2117      C2118   1.416       .  A
C2118      S2122   1.802       .  S
C2119      C2124   1.411       .  A
C2119      C2128   1.407       .  A
S2120      H2136   1.407       .  S
S2122      H2133   1.407       .  S
C2124      C2125   1.408       .  A
C2124      S2129   1.807       .  S
C2125      C2126   1.406       .  A
C2125      H2130   1.083       .  S
C2126      C2127   1.411       .  A
C2127      C2128   1.405       .  A
C2127      S2131   1.802       .  S
C2128      H2132   1.084       .  S
S2129      H2134   1.407       .  S
S2131      H2135   1.406       .  S
C2137      C2138   1.404       .  A
C2137      C2142   1.404   1_455  A
C2137      H2147   1.084       .  S
C2138      C2143   1.490       .  S
C2138      C2139   1.414       .  A
C2139      C2140   1.404       .  A
C2139      S2144   1.803       .  S
C2140      C2141   1.404   1_455  A
C2140      H2145   1.084       .  S
C2141      C2142   1.413       .  A
C2142      S2146   1.803       .  S
C2143      C2148   1.410       .  A
C2143      C2152   1.405       .  A
S2144      H2160   1.405       .  S
S2146      H2157   1.407       .  S
C2148      C2149   1.403       .  A
C2148      S2153   1.808       .  S
C2149      C2150   1.403       .  A
C2149      H2154   1.083       .  S
C2150      C2151   1.418       .  A
C2151      C2152   1.409       .  A
C2151      S2155   1.808       .  S
C2152      H2156   1.084       .  S
S2153      H2158   1.407       .  S
S2155      H2159   1.402       .  S
C2161      C2162   1.400       .  A
C2161      C2166   1.398       .  A
C2161      H2171   1.084       .  S
C2162      C2167   1.479       .  S
C2162      C2163   1.413       .  A
C2163      C2164   1.400       .  A
C2163      S2168   1.805       .  S
C2164      C2165   1.404       .  A
C2164      H2169   1.084       .  S
C2165      C2166   1.415       .  A
C2166      S2170   1.801       .  S
C2167      C2172   1.409       .  A
C2167      C2176   1.402       .  A
S2168      H2184   1.405       .  S
S2170      H2181   1.407       .  S
C2172      C2173   1.402       .  A
C2172      S2177   1.807       .  S
C2173      C2174   1.406       .  A
C2173      H2178   1.083       .  S
C2174      C2175   1.413       .  A
C2175      C2176   1.399       .  A
C2175      S2179   1.802       .  S
C2176      H2180   1.084       .  S
S2177      H2182   1.407       .  S
S2179      H2183   1.407       .  S
C2185      C2186   1.402       .  A
C2185      C2190   1.398       .  A
C2185      H2195   1.084       .  S
C2186      C2191   1.488       .  S
C2186      C2187   1.416       .  A
C2187      C2188   1.404       .  A
C2187      S2192   1.805       .  S
C2188      C2189   1.404       .  A
C2188      H2193   1.084       .  S
C2189      C2190   1.412       .  A
C2190      S2194   1.804       .  S
C2191      C2196   1.413       .  A
C2191      C2200   1.402       .  A
S2192      H2208   1.406       .  S
S2194      H2205   1.407       .  S
C2196      C2197   1.404   1_455  A
C2196      S2201   1.809       .  S
C2197      C2198   1.406       .  A
C2197      H2202   1.082       .  S
C2198      C2199   1.419       .  A
C2199      C2200   1.402   1_655  A
C2199      S2203   1.804       .  S
C2200      H2204   1.084       .  S
S2201      H2206   1.407   1_455  S
S2203      H2207   1.407       .  S
C2209      C2210   1.403       .  A
C2209      C2214   1.393       .  A
C2209      H2219   1.084       .  S
C2210      C2215   1.463       .  S
C2210      C2211   1.407       .  A
C2211      C2212   1.391       .  A
C2211      S2216   1.804       .  S
C2212      C2213   1.403       .  A
C2212      H2217   1.084       .  S
C2213      C2214   1.408       .  A
C2214      S2218   1.804       .  S
C2215      C2220   1.402       .  A
C2215      C2224   1.399       .  A
S2216      H2232   1.406       .  S
S2218      H2229   1.407       .  S
C2220      C2221   1.396       .  A
C2220      S2225   1.807       .  S
C2221      C2222   1.410       .  A
C2221      H2226   1.082       .  S
C2222      C2223   1.417       .  A
C2223      C2224   1.391       .  A
C2223      S2227   1.804       .  S
C2224      H2228   1.084       .  S
S2225      H2230   1.407       .  S
S2227      H2231   1.404       .  S
C2233      C2234   1.404       .  A
C2233      C2238   1.399       .  A
C2233      H2243   1.084       .  S
C2234      C2239   1.484       .  S
C2234      C2235   1.412       .  A
C2235      C2236   1.400       .  A
C2235      S2240   1.803       .  S
C2236      C2237   1.403       .  A
C2236      H2241   1.084       .  S
C2237      C2238   1.410       .  A
C2238      S2242   1.804       .  S
C2239      C2244   1.407       .  A
C2239      C2248   1.405       .  A
S2240      H2256   1.406       .  S
S2242      H2253   1.405       .  S
C2244      C2245   1.402       .  A
C2244      S2249   1.807       .  S
C2245      C2246   1.409       .  A
C2245      H2250   1.082       .  S
C2246      C2247   1.414       .  A
C2247      C2248   1.401       .  A
C2247      S2251   1.803       .  S
C2248      H2252   1.084       .  S
S2249      H2254   1.407       .  S
S2251      H2255   1.406       .  S
