geometry optimzed in LAMMPS
_audit_creation_date              2020-11-30 
_audit_creation_method            'lammps2cif' 
_symmetry_space_group_name_H-M    'P1' 
_symmetry_Int_Tables_number       1 
_symmetry_cell_setting            triclinic 
loop_ 
_symmetry_equiv_pos_as_xyz 
  x,y,z 
_cell_length_a                    44.07845615728872 
_cell_length_b                    20.5162262414057 
_cell_length_c                    37.10565940291503 
_cell_angle_alpha                 84.94766961251665 
_cell_angle_beta                  83.23539643843068 
_cell_angle_gamma                 77.96914307328889 
loop_ 
_atom_site_label 
_atom_site_type_symbol 
_atom_site_fract_x 
_atom_site_fract_y 
_atom_site_fract_z 
_atom_site_charge 
O1          O  0.27586512  0.57705446  0.22740083    -0.81520
O2          O  0.26746409  0.87469062  0.24714422    -0.66210
O3          O  0.26436599  0.69161831  0.25789859    -1.12810
C4          C  0.18155309  0.76199093  0.18026708     1.05370
O5          O  0.21633360  0.90359530  0.25518123    -0.79420
O6          O  0.17555028  0.82347533  0.25104473    -0.67000
Ni7        Ni  0.30027634  0.62321909  0.25059986     1.34870
C8          C  0.17829746  0.76955039  0.27095638     0.84100
O9          O  0.29755671  0.77085764  0.28561869    -0.79960
O10         O  0.32542081  0.66764782  0.27485243    -0.90230
C11         C  0.24307305  0.91039500  0.26228693     0.83670
O12         O  0.31580141  0.66087630  0.20498282    -0.68440
O13         O  0.18799316  0.82032499  0.17908648    -0.87720
C14         C  0.31985918  0.72041954  0.19774093     0.84500
C15         C  0.32169927  0.72459752  0.28795928     1.06070
H16         H  0.24981019  0.78803921  0.19188777     0.37880
O17         O  0.23881883  0.78699121  0.21598379    -1.10380
O18         O  0.20250225  0.72392069  0.26850807    -0.67040
Ni19       Ni  0.23120045  0.69903735  0.22717128     1.26350
O20         O  0.30274474  0.77024087  0.21338012    -0.67260
O21         O  0.19666408  0.71114040  0.19778500    -0.79560
C22         C  0.25103727  0.56613148  0.24565473     0.83890
O23         O  0.22622883  0.60872896  0.24113618    -0.66730
Ni24       Ni  0.20392619  0.85993999  0.21632029     1.27450
Ni25       Ni  0.26802206  0.78147273  0.25109646     1.26060
H26         H  0.25613911  0.68446140  0.28291914     0.38430
O27         O  0.02490067  0.08751844  0.23257154    -0.81520
O28         O  0.01756563  0.38723244  0.24487990    -0.66210
O29         O  0.01361551  0.20501698  0.26011664    -1.12810
C30         C  0.43149075  0.26885410  0.18146763     1.05370
O31         O  0.46637929  0.41577940  0.25395740    -0.79420
O32         O  0.42491597  0.33560901  0.25202351    -0.67000
Ni33       Ni  0.04925421  0.13537383  0.25467417     1.34870
C34         C  0.42740467  0.28189327  0.27198341     0.84100
O35         O  0.04711162  0.28610133  0.28589107    -0.79960
O36         O  0.07389992  0.18064894  0.27864450    -0.90230
C37         C  0.99327189  0.42408109  0.25937629     0.83670
O38         O  0.06650121  0.16955726  0.20863468    -0.68440
O39         O  0.43653301  0.32846889  0.18028187    -0.87720
C40         C  0.07011714  0.22914060  0.19951373     0.84500
C41         C  0.07033683  0.23845128  0.29050561     1.06070
H42         H  0.49932237  0.29752634  0.19225874     0.37880
O43         O  0.48843830  0.29758330  0.21641274    -1.10380
O44         O  0.45177986  0.23665693  0.27001052    -0.67040
Ni45       Ni  0.48079324  0.21021554  0.22928410     1.26350
O46         O  0.05257771  0.27996337  0.21381282    -0.67260
O47         O  0.44691510  0.21952672  0.19955708    -0.79560
C48         C  0.49953315  0.07887648  0.25077256     0.83890
O49         O  0.47516231  0.12158541  0.24493005    -0.66730
Ni50       Ni  0.45324879  0.37017477  0.21630861     1.27450
Ni51       Ni  0.01769145  0.29435595  0.25124187     1.26060
H52         H  0.00511570  0.20001816  0.28520308     0.38430
O53         O  0.03223859  0.59626266  0.04778566    -0.81520
O54         O  0.02162018  0.89026513  0.06407380    -0.66210
O55         O  0.00960339  0.71148406  0.08806670    -1.12810
C56         C  0.42734665  0.77300986  0.34848179     1.05370
O57         O  0.47158667  0.92090558  0.07537491    -0.79420
O58         O  0.43161320  0.83683485  0.09709735    -0.67000
Ni59       Ni  0.04480715  0.63919298  0.08685273     1.34870
C60         C  0.42805797  0.77711313  0.10500851     0.84100
O61         O  0.05126331  0.78781399  0.10696578    -0.79960
O62         O  0.06086575  0.67799907  0.12427242    -0.90230
C63         C  0.99697153  0.93277549  0.05885786     0.83670
O64         O  0.07273276  0.67703664  0.05217881    -0.68440
O65         O  0.42319504  0.82993513  0.36172682    -0.87720
C66         C  0.06978658  0.73160613  0.03282438     0.84500
C67         C  0.06680218  0.73665440  0.12381532     1.06070
H68         H  0.49240381  0.81426892  0.35458503     0.37880
O69         O  0.48421403  0.80524516  0.04575122    -1.10380
O70         O  0.44581867  0.72703762  0.09025546    -0.67040
Ni71       Ni  0.48081970  0.71519588  0.05292450     1.26350
O72         O  0.04564904  0.77709690  0.03598515    -0.67260
O73         O  0.45153859  0.72713489  0.35120833    -0.79560
C74         C  0.50569553  0.58618853  0.04269144     0.83890
O75         O  0.48135036  0.62204461  0.05768920    -0.66730
Ni76       Ni  0.44805788  0.87341983  0.05168820     1.27450
Ni77       Ni  0.01684989  0.79985553  0.07740497     1.26060
H78         H  0.99866880  0.70959586  0.11214720     0.38430
O79         O  0.28353466  0.08300365  0.05203968    -0.81520
O80         O  0.27754648  0.37645627  0.05955411    -0.66210
O81         O  0.26233538  0.20206901  0.08879044    -1.12810
C82         C  0.17925151  0.26518748  0.35000485     1.05370
O83         O  0.22818039  0.41242800  0.07286448    -0.79420
O84         O  0.18602422  0.33194996  0.09857445    -0.67000
Ni85       Ni  0.29691727  0.12831822  0.08951087     1.34870
C86         C  0.18164486  0.27270086  0.10724404     0.84100
O87         O  0.30554649  0.27748942  0.10446444    -0.79960
O88         O  0.31381564  0.16964769  0.12552614    -0.90230
C89         C  0.25327521  0.41935376  0.05359881     0.83670
O90         O  0.32571156  0.16148677  0.05366724    -0.68440
O91         O  0.17637437  0.32228944  0.36246460    -0.87720
C92         C  0.32333133  0.21436840  0.03297107     0.84500
C93         C  0.32030714  0.22808764  0.12311066     1.06070
H94         H  0.24551894  0.30061864  0.35357041     0.37880
O95         O  0.23735213  0.29574670  0.04550895    -1.10380
O96         O  0.19821222  0.22170969  0.09210180    -0.67040
Ni97       Ni  0.23261440  0.20690330  0.05412030     1.26350
O98         O  0.29902540  0.25984967  0.03452044    -0.67260
O99         O  0.20253839  0.21695065  0.35324355    -0.79560
C100        C  0.25661873  0.07699681  0.04503294     0.83890
O101        O  0.23237481  0.11403825  0.05968727    -0.66730
Ni102      Ni  0.20231995  0.36640111  0.05203007     1.27450
Ni103      Ni  0.27095992  0.28854205  0.07560110     1.26060
H104        H  0.25148510  0.20299707  0.11298127     0.38430
C105        C  0.38475260  0.21808691  0.18531164    -0.26950
C106        C  0.40435109  0.25664046  0.16445799    -0.15020
C107        C  0.39572931  0.28601318  0.13020700     0.35610
C108        C  0.36775145  0.27730244  0.11841335    -0.26400
C109        C  0.34821838  0.23862425  0.13925244    -0.15640
C110        C  0.35712298  0.20855107  0.17314491     0.36690
N111        N  0.33813835  0.17017733  0.19643157    -0.89890
H112        H  0.39058287  0.19629356  0.21193635     0.17810
H113        H  0.36180994  0.29914510  0.09183661     0.17800
N114        N  0.41525543  0.32187952  0.10579366    -0.88920
H115        H  0.33669642  0.12806283  0.18334375     0.35180
H116        H  0.31578041  0.19944374  0.20111921     0.40270
H117        H  0.43701471  0.31875557  0.11495153     0.39890
H118        H  0.40416875  0.37218294  0.10431188     0.34780
C119        C  0.12574144  0.19173178  0.17472677    -0.26950
C120        C  0.09779080  0.23963089  0.17386140    -0.15020
C121        C  0.09814478  0.29986183  0.15227732     0.35610
C122        C  0.12621355  0.31086827  0.13247997    -0.26400
C123        C  0.15412358  0.26286474  0.13327394    -0.15640
C124        C  0.15379170  0.20273338  0.15491898     0.36690
N125        N  0.18203246  0.15332769  0.15709926    -0.89890
H126        H  0.12598236  0.14617140  0.19193535     0.17810
H127        H  0.12600011  0.35636564  0.11522149     0.17800
N128        N  0.06991327  0.34927837  0.15005480    -0.88920
H129        H  0.17790959  0.11202450  0.17413377     0.35180
H130        H  0.19758025  0.17449175  0.16926597     0.40270
H131        H  0.05440837  0.32817864  0.13777595     0.39890
H132        H  0.07407252  0.39064675  0.13309979     0.34780
C133        C  0.40590354  0.21675989  0.99118570    -0.26950
C134        C  0.40053390  0.26848555  0.29708189    -0.15020
C135        C  0.36937794  0.29915812  0.29147982     0.35610
C136        C  0.34488074  0.27794624  0.31324754    -0.26400
C137        C  0.35028090  0.22673311  0.34084547    -0.15640
C138        C  0.38137341  0.19577239  0.01306416     0.36690
N139        N  0.38915044  0.14407617  0.04097537    -0.89890
H140        H  0.42952286  0.19206400  0.99574291     0.17810
H141        H  0.32126599  0.30258003  0.30862854     0.17800
N142        N  0.36155257  0.35082076  0.26356317    -0.88920
H143        H  0.37965603  0.10321965  0.03649227     0.35180
H144        H  0.38000748  0.16220114  0.06627844     0.40270
H145        H  0.37095818  0.33290831  0.23828605     0.39890
H146        H  0.37071837  0.39202272  0.26823374     0.34780
C147        C  0.14189844  0.29913575  0.30473761    -0.26950
C148        C  0.15268240  0.25459382  0.33338622    -0.15020
C149        C  0.13458739  0.20962392  0.01728356     0.35610
C150        C  0.10654250  0.20734975  0.00389926    -0.26400
C151        C  0.09611092  0.25071939  0.30802098    -0.15640
C152        C  0.11360454  0.29756835  0.29171995     0.36690
N153        N  0.10326922  0.34094717  0.26105459    -0.89890
H154        H  0.15549164  0.33546194  0.29281754     0.17810
H155        H  0.09285981  0.17128027  0.01595632     0.17800
N156        N  0.14408227  0.16872188  0.04909322    -0.88920
H157        H  0.11959909  0.37034571  0.25133901     0.35180
H158        H  0.08292693  0.37385801  0.27022941     0.40270
H159        H  0.16444501  0.13486982  0.04116657     0.39890
H160        H  0.12744463  0.14029167  0.05918482     0.34780
C161        C  0.02293124  0.03715811  0.30844086    -0.26950
C162        C  0.49939457  0.03743050  0.28583691    -0.15020
C163        C  0.47373621  0.00800515  0.29998911     0.35610
C164        C  0.47262519  0.97866864  0.33561819    -0.26400
C165        C  0.99655867  0.97675059  0.02466198    -0.15640
C166        C  0.02153006  0.00872033  0.01115839     0.36690
N167        N  0.04465771  0.01750917  0.03362235    -0.89890
H168        H  0.04202482  0.06197516  0.29897125     0.17810
H169        H  0.45328229  0.95467693  0.34521533     0.17800
N170        N  0.44896429  0.00429344  0.27874122    -0.88920
H171        H  0.06645501  0.99258551  0.02265263     0.35180
H172        H  0.04067385  0.99785033  0.06024451     0.40270
H173        H  0.45377041  0.01911236  0.25141699     0.39890
H174        H  0.42888878  0.03672787  0.28912541     0.34780
C175        C  0.47648002  0.46737015  0.98717929    -0.26950
C176        C  0.99607386  0.46922017  0.28768565    -0.15020
C177        C  0.01903303  0.50915396  0.28446690     0.35610
C178        C  0.02212286  0.54469594  0.31412687    -0.26400
C179        C  0.50300176  0.54124047  0.01420426    -0.15640
C180        C  0.47973707  0.50213501  0.01704752     0.36690
N181        N  0.46021401  0.49299470  0.05020906    -0.89890
H182        H  0.45904036  0.43647526  0.99020461     0.17810
H183        H  0.03922386  0.57641891  0.31083481     0.17800
N184        N  0.03846747  0.51805867  0.25119460    -0.88920
H185        H  0.43738747  0.51662494  0.04602787     0.35180
H186        H  0.46668243  0.51404501  0.07196315     0.40270
H187        H  0.03230218  0.49563406  0.22974566     0.39890
H188        H  0.06141018  0.49548850  0.25550959     0.34780
C189        C  0.40307962  0.70646864  0.15294709    -0.26950
C190        C  0.40063487  0.76528032  0.13023478    -0.15020
C191        C  0.37095938  0.80778923  0.12838693     0.35610
C192        C  0.34472792  0.79090919  0.14964623    -0.26400
C193        C  0.34719176  0.73213800  0.17237065    -0.15640
C194        C  0.37683836  0.68956107  0.17416715     0.36690
N195        N  0.38055910  0.63080106  0.19870448    -0.89890
H196        H  0.42563934  0.67339848  0.15408599     0.17810
H197        H  0.32216311  0.82397698  0.14854966     0.17800
N198        N  0.36719389  0.86648358  0.10380240    -0.88920
H199        H  0.40413423  0.60847164  0.19904289     0.35180
H200        H  0.37007356  0.59613644  0.18840001     0.40270
H201        H  0.37753156  0.90134286  0.11415534     0.39890
H202        H  0.34360152  0.88858274  0.10334769     0.34780
C203        C  0.13712617  0.70403746  0.17897662    -0.26910
C204        C  0.15331784  0.75395733  0.16370842    -0.15020
C205        C  0.13998981  0.79953611  0.13635590     0.35610
C206        C  0.11115698  0.79470770  0.12514226    -0.26400
C207        C  0.09497762  0.74479409  0.14041798    -0.15640
C208        C  0.10830838  0.69918095  0.16773882     0.36690
N209        N  0.09245459  0.64848280  0.18473505    -0.89890
H210        H  0.14639291  0.66941994  0.20065562     0.17810
H211        H  0.10188341  0.82926810  0.10343934     0.17800
N212        N  0.15585557  0.85015571  0.11928768    -0.88920
H213        H  0.08862231  0.65490429  0.21266078     0.35180
H214        H  0.10718762  0.60204316  0.18091906     0.40270
H215        H  0.14113640  0.89662174  0.12307067     0.39890
H216        H  0.15966348  0.84363269  0.09137151     0.34780
C217        C  0.36439515  0.68861263  0.32684637    -0.26950
C218        C  0.34793884  0.73855036  0.30433111    -0.15020
C219        C  0.35874065  0.79832791  0.29442493     0.35610
C220        C  0.38522093  0.80823105  0.30876225    -0.26400
C221        C  0.40155491  0.75848613  0.33148925    -0.15640
C222        C  0.39108689  0.69816417  0.34087181     0.36690
N223        N  0.40695164  0.64791183  0.36545608    -0.89890
H224        H  0.35617023  0.64238100  0.33375501     0.17810
H225        H  0.39343880  0.85446724  0.30183530     0.17800
N226        N  0.34351998  0.84743365  0.26883943    -0.88920
H227        H  0.39116170  0.61343413  0.04385944     0.35180
H228        H  0.40094455  0.67732226  0.06170222     0.40270
H229        H  0.34643131  0.82599944  0.24380929     0.39890
H230        H  0.35436239  0.88861106  0.26475213     0.34780
C231        C  0.12988209  0.81467952  0.97562504    -0.26950
C232        C  0.15148107  0.75880899  0.29666009    -0.15020
C233        C  0.14505642  0.69435627  0.30627771     0.35610
C234        C  0.11775317  0.68736560  0.32766402    -0.26400
C235        C  0.09628434  0.74315579  0.34000006    -0.15640
C236        C  0.10252652  0.80767474  0.99706293     0.36690
N237        N  0.08227881  0.86715541  0.00932144    -0.89890
H238        H  0.13427649  0.86450997  0.96845630     0.17810
H239        H  0.11339539  0.63749173  0.33477771     0.17800
N240        N  0.16517550  0.63486402  0.29400259    -0.88920
H241        H  0.07964395  0.86386247  0.03773237     0.35180
H242        H  0.06072658  0.87178708  0.99922408     0.40270
H243        H  0.18662968  0.63005225  0.30435043     0.39890
H244        H  0.16794458  0.63844130  0.26559315     0.34780
C245        C  0.22439583  0.02059449  0.34397414    -0.26950
C246        C  0.25372858  0.03201229  0.01623730    -0.15020
C247        C  0.27965398  0.00306799  0.99232684     0.35610
C248        C  0.27531124  0.96610771  0.29653236    -0.26400
C249        C  0.24577355  0.95488320  0.29140905    -0.15640
C250        C  0.21993810  0.98263988  0.31578915     0.36690
N251        N  0.18921383  0.97188513  0.31237953    -0.89890
H252        H  0.20450718  0.04096201  0.36243351     0.17810
H253        H  0.29516933  0.94597755  0.27799460     0.17800
N254        N  0.31050260  0.01266598  0.99611425    -0.88920
H255        H  0.17270646  0.99873540  0.33103339     0.35180
H256        H  0.18922309  0.92139798  0.31945413     0.40270
H257        H  0.31102978  0.06279122  0.98860577     0.39890
H258        H  0.32704508  0.98473299  0.97794200     0.34780
C259        C  0.22605341  0.46925785  0.99899828    -0.26950
C260        C  0.25284604  0.45859905  0.01770289    -0.15020
C261        C  0.28011211  0.47710631  0.33310417     0.35610
C262        C  0.27952760  0.50860188  0.29779534    -0.26400
C263        C  0.25240668  0.52127277  0.27962997    -0.15640
C264        C  0.22590214  0.49817258  0.29659804     0.36690
N265        N  0.19915375  0.50314263  0.27704727    -0.89890
H266        H  0.20538077  0.45274437  0.01182407     0.17810
H267        H  0.30021642  0.52506193  0.28491754     0.17800
N268        N  0.30828447  0.46475267  0.35078373    -0.88920
H269        H  0.18166961  0.48363959  0.95971304     0.35180
H270        H  0.20600716  0.47339646  0.25488817     0.40270
H271        H  0.30406018  0.49416148  0.03982539     0.39890
H272        H  0.32632496  0.48067879  0.33371304     0.34780
O273        O  0.27589485  0.57721568  0.56068822    -0.81520
O274        O  0.26742152  0.87476767  0.58055784    -0.66210
O275        O  0.26432233  0.69170827  0.59124921    -1.12810
C276        C  0.18159980  0.76212785  0.51349221     1.05370
O277        O  0.21629163  0.90372016  0.58851426    -0.79420
O278        O  0.17553896  0.82356407  0.58430629    -0.67000
Ni279      Ni  0.30025281  0.62334646  0.58398855     1.34870
C280        C  0.17827285  0.76961023  0.60419222     0.84100
O281        O  0.29743017  0.77093762  0.61910951    -0.79960
O282        O  0.32533863  0.66776272  0.60834432    -0.90230
C283        C  0.24302354  0.91049962  0.59565879     0.83670
O284        O  0.31583731  0.66106478  0.53841935    -0.68440
O285        O  0.18802896  0.82046648  0.51234759    -0.87720
C286        C  0.31990274  0.72061250  0.53124131     0.84500
C287        C  0.32157659  0.72469722  0.62148313     1.06070
H288        H  0.24985346  0.78819341  0.52523437     0.37880
O289        O  0.23882773  0.78711268  0.54931029    -1.10380
O290        O  0.20246769  0.72396081  0.60173846    -0.67040
Ni291      Ni  0.23121272  0.69913879  0.56043997     1.26350
O292        O  0.30274535  0.77038140  0.54687845    -0.67260
O293        O  0.19671544  0.71125713  0.53099135    -0.79560
C294        C  0.25105795  0.56623472  0.57889541     0.83890
O295        O  0.22624560  0.60880572  0.57435035    -0.66730
Ni296      Ni  0.20392855  0.86005970  0.54961923     1.27450
Ni297      Ni  0.26796573  0.78156803  0.58450204     1.26060
H298        H  0.25606340  0.68451700  0.61625452     0.38430
O299        O  0.02485702  0.08740389  0.56594754    -0.81520
O300        O  0.01763644  0.38710703  0.57822690    -0.66210
O301        O  0.01362937  0.20491447  0.59346553    -1.12810
C302        C  0.43148224  0.26868432  0.51479752     1.05370
O303        O  0.46632028  0.41579350  0.58724905    -0.79420
O304        O  0.42489472  0.33553468  0.58534420    -0.67000
Ni305      Ni  0.04924443  0.13522263  0.58801859     1.34870
C306        C  0.42739167  0.28182678  0.60530974     0.84100
O307        O  0.04714983  0.28593204  0.61922277    -0.79960
O308        O  0.07392314  0.18047465  0.61195340    -0.90230
C309        C  0.99335387  0.42396995  0.59274316     0.83670
O310        O  0.06647533  0.16934173  0.54196056    -0.68440
O311        O  0.43649469  0.32832744  0.51360688    -0.87720
C312        C  0.07013393  0.22889201  0.53283199     0.84500
C313        C  0.07037070  0.23827152  0.62381809     1.06070
H314        H  0.49929957  0.29750963  0.52558361     0.37880
O315        O  0.48841633  0.29756983  0.54973839    -1.10380
O316        O  0.45177467  0.23660732  0.60334683    -0.67040
Ni317      Ni  0.48080055  0.21018144  0.56262447     1.26350
O318        O  0.05262850  0.27975695  0.54713885    -0.67260
O319        O  0.44692577  0.21940037  0.53289720    -0.79560
C320        C  0.49958282  0.07885576  0.58411500     0.83890
O321        O  0.47520158  0.12153946  0.57828409    -0.66730
Ni322      Ni  0.45320605  0.37011406  0.54961472     1.27450
Ni323      Ni  0.01773587  0.29423123  0.58457849     1.26060
H324        H  0.00513604  0.19993404  0.61855592     0.38430
O325        O  0.03225116  0.59637011  0.38105120    -0.81520
O326        O  0.02162385  0.89038079  0.39726404    -0.66210
O327        O  0.00963249  0.71160314  0.42131166    -1.12810
C328        C  0.42722040  0.77306285  0.68204790     1.05370
O329        O  0.47176938  0.92221315  0.40968003    -0.79420
O330        O  0.43215348  0.83749471  0.43181803    -0.67000
Ni331      Ni  0.04483869  0.63932632  0.42009245     1.34870
C332        C  0.42825504  0.77784929  0.43904572     0.84100
O333        O  0.05130081  0.78796994  0.44016182    -0.79960
O334        O  0.06090924  0.67816370  0.45748899    -0.90230
C335        C  0.99696810  0.93287159  0.39205205     0.83670
O336        O  0.07275258  0.67716220  0.38539531    -0.68440
O337        O  0.42311870  0.82998195  0.69528682    -0.87720
C338        C  0.06980526  0.73172229  0.36603092     0.84500
C339        C  0.06684462  0.73682211  0.45701866     1.06070
H340        H  0.49235244  0.81420581  0.68796552     0.37880
O341        O  0.48402101  0.80706145  0.37954608    -1.10380
O342        O  0.44564120  0.72813501  0.42358190    -0.67040
Ni343      Ni  0.48059858  0.71700200  0.38616634     1.26350
O344        O  0.04566395  0.77720873  0.36918841    -0.67260
O345        O  0.45140780  0.72715624  0.68472047    -0.79560
C346        C  0.50544708  0.58777575  0.37548547     0.83890
O347        O  0.48106021  0.62378903  0.39032440    -0.66730
Ni348      Ni  0.44787571  0.87505264  0.38630055     1.27450
Ni349      Ni  0.01687026  0.79997186  0.41061945     1.26060
H350        H  0.99871246  0.70973088  0.44540062     0.38430
O351        O  0.28373301  0.08263136  0.38501032    -0.81520
O352        O  0.27756043  0.37601494  0.39293968    -0.66210
O353        O  0.26243423  0.20148776  0.42196104    -1.12810
C354        C  0.17925163  0.26516081  0.68328437     1.05370
O355        O  0.22818978  0.41188362  0.40625923    -0.79420
O356        O  0.18609980  0.33124830  0.43185465    -0.67000
Ni357      Ni  0.29706141  0.12780411  0.42259281     1.34870
C358        C  0.18171346  0.27198771  0.44045816     0.84100
O359        O  0.30560103  0.27693127  0.43774345    -0.79960
O360        O  0.31393087  0.16902775  0.45869188    -0.90230
C361        C  0.25328000  0.41890573  0.38701633     0.83670
O362        O  0.32582362  0.16120447  0.38682243    -0.68440
O363        O  0.17635929  0.32228197  0.69572674    -0.87720
C364        C  0.32340043  0.21415410  0.36618511     0.84500
C365        C  0.32039091  0.22749776  0.45634127     1.06070
H366        H  0.24549804  0.30063215  0.68684123     0.37880
O367        O  0.23740675  0.29530054  0.37877977    -1.10380
O368        O  0.19829024  0.22103449  0.42527414    -0.67040
Ni369      Ni  0.23271384  0.20641208  0.38727680     1.26350
O370        O  0.29906363  0.25954326  0.36776483    -0.67260
O371        O  0.20253953  0.21694116  0.68654072    -0.79560
C372        C  0.25682757  0.07661057  0.37797128     0.83890
O373        O  0.23255948  0.11349419  0.39269559    -0.66730
Ni374      Ni  0.20236113  0.36588902  0.38535117     1.27450
Ni375      Ni  0.27101037  0.28803387  0.40888184     1.26060
H376        H  0.25158680  0.20229351  0.44615259     0.38430
C377        C  0.38480887  0.21766957  0.51858257    -0.26950
C378        C  0.40436729  0.25636271  0.49776456    -0.15020
C379        C  0.39573666  0.28572357  0.46351345     0.35610
C380        C  0.36778872  0.27688338  0.45169318    -0.26400
C381        C  0.34829347  0.23807749  0.47249873    -0.15640
C382        C  0.35721080  0.20799952  0.50638511     0.36690
N383        N  0.33826710  0.16948697  0.52963591    -0.89890
H384        H  0.39064488  0.19586692  0.54520346     0.17810
H385        H  0.36184014  0.29873856  0.42512103     0.17800
N386        N  0.41522716  0.32170960  0.43912319    -0.88920
H387        H  0.33687151  0.12738279  0.51650947     0.35180
H388        H  0.31588843  0.19865796  0.53433172     0.40270
H389        H  0.43697724  0.31866562  0.44828820     0.39890
H390        H  0.40409726  0.37198547  0.43765848     0.34780
C391        C  0.12571198  0.19116254  0.50791381    -0.26950
C392        C  0.09781472  0.23925950  0.50714796    -0.15020
C393        C  0.09823439  0.29950809  0.48560337     0.35610
C394        C  0.12631331  0.31034950  0.46576479    -0.26400
C395        C  0.15417270  0.26216429  0.46646955    -0.15640
C396        C  0.15377351  0.20199704  0.48805829     0.36690
N397        N  0.18195784  0.15239332  0.49014442    -0.89890
H398        H  0.12590652  0.14556832  0.52508159     0.17810
H399        H  0.12614557  0.35588772  0.44855271     0.17800
N400        N  0.07005871  0.34911936  0.48346463    -0.88920
H401        H  0.17778847  0.11108826  0.50714792     0.35180
H402        H  0.19758070  0.17335214  0.50230376     0.40270
H403        H  0.05447969  0.32821081  0.47119979     0.39890
H404        H  0.07426352  0.39047924  0.46653152     0.34780
C405        C  0.40594463  0.21700947  0.32454518    -0.26950
C406        C  0.40051759  0.26841767  0.63040061    -0.15020
C407        C  0.36936265  0.29905861  0.62477273     0.35610
C408        C  0.34486219  0.27786638  0.64654163    -0.26400
C409        C  0.35025679  0.22670661  0.67416703    -0.15640
C410        C  0.38143264  0.19584067  0.34635063     0.36690
N411        N  0.38923297  0.14403930  0.37420267    -0.89890
H412        H  0.42956801  0.19236833  0.32911813     0.17810
H413        H  0.32124869  0.30247730  0.64190297     0.17800
N414        N  0.36154121  0.35066748  0.59682758    -0.88920
H415        H  0.37979207  0.10315420  0.36963666     0.35180
H416        H  0.38005952  0.16201774  0.39952927     0.40270
H417        H  0.37096232  0.33271460  0.57156367     0.39890
H418        H  0.37069099  0.39190025  0.60148225     0.34780
C419        C  0.14191756  0.29901103  0.63800545    -0.26950
C420        C  0.15269910  0.25451228  0.66666906    -0.15020
C421        C  0.13480584  0.20886344  0.35025045     0.35610
C422        C  0.10670920  0.20672997  0.33694821    -0.26400
C423        C  0.09614957  0.25054120  0.64130846    -0.15640
C424        C  0.11363141  0.29739783  0.62499041     0.36690
N425        N  0.10329037  0.34074135  0.59431499    -0.89890
H426        H  0.15550400  0.33534326  0.62607565     0.17810
H427        H  0.09312548  0.17038635  0.34886674     0.17800
N428        N  0.14449673  0.16736558  0.38179397    -0.88920
H429        H  0.11961535  0.37014482  0.58458720     0.35180
H430        H  0.08294585  0.37365181  0.60348322     0.40270
H431        H  0.16484960  0.13373858  0.37356969     0.39890
H432        H  0.12793192  0.13870378  0.39179975     0.34780
C433        C  0.02291951  0.03714896  0.64182323    -0.26950
C434        C  0.49945721  0.03737387  0.61916706    -0.15020
C435        C  0.47380199  0.00793785  0.63332160     0.35610
C436        C  0.47269822  0.97858610  0.66894779    -0.26400
C437        C  0.99654493  0.97683633  0.35785140    -0.15640
C438        C  0.02151336  0.00880822  0.34433690     0.36690
N439        N  0.04464336  0.01761467  0.36679295    -0.89890
H440        H  0.04201722  0.06193445  0.63232407     0.17810
H441        H  0.45336120  0.95457518  0.67854825     0.17800
N442        N  0.44902662  0.00423092  0.61207813    -0.88920
H443        H  0.06643960  0.99268161  0.35582559     0.35180
H444        H  0.04066079  0.99797782  0.39341993     0.40270
H445        H  0.45383102  0.01904798  0.58475321     0.39890
H446        H  0.42895302  0.03666795  0.62246482     0.34780
C447        C  0.47691192  0.46684601  0.32073455    -0.26950
C448        C  0.99617217  0.46910265  0.62105698    -0.15020
C449        C  0.01913841  0.50902166  0.61784054     0.35610
C450        C  0.02222179  0.54459265  0.64749484    -0.26400
C451        C  0.50284304  0.54255409  0.34711741    -0.15640
C452        C  0.48015627  0.50197622  0.35047008     0.36690
N453        N  0.46137858  0.49150517  0.38404688    -0.89890
H454        H  0.45987582  0.43496608  0.32407786     0.17810
H455        H  0.03932921  0.57630037  0.64420118     0.17800
N456        N  0.03858489  0.51789213  0.58457381    -0.88920
H457        H  0.43818383  0.51260052  0.38028243     0.35180
H458        H  0.46748667  0.51421193  0.40542488     0.40270
H459        H  0.03242857  0.49544387  0.56312832     0.39890
H460        H  0.06152483  0.49532733  0.58890441     0.34780
C461        C  0.40311570  0.70630679  0.48630726    -0.26950
C462        C  0.40083576  0.76581589  0.46419653    -0.15020
C463        C  0.37127791  0.80893752  0.46276530     0.35610
C464        C  0.34498542  0.79190919  0.48381120    -0.26400
C465        C  0.34727333  0.73244656  0.50595509    -0.15640
C466        C  0.37681789  0.68927226  0.50734501     0.36690
N467        N  0.38039309  0.62971436  0.53128583    -0.89890
H468        H  0.42559038  0.67278511  0.48710879     0.17810
H469        H  0.32251159  0.82543733  0.48302174     0.17800
N470        N  0.36768520  0.86846048  0.43879592    -0.88920
H471        H  0.40393027  0.60693920  0.53142759     0.35180
H472        H  0.36973301  0.59579683  0.52056950     0.40270
H473        H  0.37825600  0.90249294  0.44954555     0.39890
H474        H  0.34413837  0.89110670  0.43857273     0.34780
C475        C  0.13717728  0.70417566  0.51217123    -0.26910
C476        C  0.15336657  0.75410857  0.49691933    -0.15020
C477        C  0.14003204  0.79971638  0.46958106     0.35610
C478        C  0.11119775  0.79489551  0.45836244    -0.26400
C479        C  0.09502117  0.74496685  0.47362338    -0.15640
C480        C  0.10835742  0.69933246  0.50093395     0.36690
N481        N  0.09250707  0.64862237  0.51792167    -0.89890
H482        H  0.14644660  0.66953728  0.53384050     0.17810
H483        H  0.10192020  0.82947493  0.43666888     0.17800
N484        N  0.15589241  0.85035899  0.45253286    -0.88920
H485        H  0.08867916  0.65502209  0.54584971     0.35180
H486        H  0.10724025  0.60218681  0.51409356     0.40270
H487        H  0.14117004  0.89681595  0.45633275     0.39890
H488        H  0.15969905  0.84387206  0.42461298     0.34780
C489        C  0.36421618  0.68875256  0.66045966    -0.26950
C490        C  0.34778039  0.73867711  0.63791827    -0.15020
C491        C  0.35858422  0.79845910  0.62802897     0.35610
C492        C  0.38505922  0.80835436  0.64238135    -0.26400
C493        C  0.40138736  0.75860027  0.66510737    -0.15640
C494        C  0.39090256  0.69830087  0.67450167     0.36690
N495        N  0.40675333  0.64805931  0.69910206    -0.89890
H496        H  0.35598741  0.64252391  0.66736182     0.17810
H497        H  0.39328750  0.85457779  0.63545047     0.17800
N498        N  0.34337875  0.84756836  0.60243395    -0.88920
H499        H  0.39613689  0.60670095  0.36924548     0.35180
H500        H  0.40450408  0.66799034  0.39081805     0.40270
H501        H  0.34630892  0.82614062  0.57740045     0.39890
H502        H  0.35422096  0.88874659  0.59836189     0.34780
C503        C  0.12990167  0.81474662  0.30876571    -0.26950
C504        C  0.15145674  0.75886026  0.62988405    -0.15020
C505        C  0.14501657  0.69440972  0.63946268     0.35610
C506        C  0.11772687  0.68741590  0.66087319    -0.26400
C507        C  0.09629426  0.74320041  0.67327606    -0.15640
C508        C  0.10254307  0.80776564  0.33021376     0.36690
N509        N  0.08228484  0.86726470  0.34243292    -0.89890
H510        H  0.13428880  0.86457135  0.30155573     0.17810
H511        H  0.11335619  0.63754590  0.66796437     0.17800
N512        N  0.16511265  0.63492666  0.62713882    -0.88920
H513        H  0.07964816  0.86403450  0.37084394     0.35180
H514        H  0.06073342  0.87184293  0.33234184     0.40270
H515        H  0.18657147  0.63004469  0.63748574     0.39890
H516        H  0.16787878  0.63857224  0.59872935     0.34780
C517        C  0.22436175  0.02051159  0.67741328    -0.26950
C518        C  0.25396502  0.03178049  0.34908697    -0.15020
C519        C  0.27979843  0.00385303  0.32474650     0.35610
C520        C  0.27524017  0.96638732  0.62982071    -0.26400
C521        C  0.24571543  0.95499467  0.62477439    -0.15640
C522        C  0.21989873  0.98257100  0.64922500     0.36690
N523        N  0.18919267  0.97163535  0.64588515    -0.89890
H524        H  0.20449051  0.04073485  0.69593483     0.17810
H525        H  0.29508072  0.94640882  0.61121868     0.17800
N526        N  0.31056306  0.01439313  0.32814861    -0.88920
H527        H  0.17269274  0.99833830  0.66460305     0.35180
H528        H  0.18928250  0.92110208  0.65291104     0.40270
H529        H  0.31066496  0.06477570  0.32088360     0.39890
H530        H  0.32707355  0.98719632  0.30963811     0.34780
C531        C  0.22604270  0.46901069  0.33245972    -0.26950
C532        C  0.25284161  0.45827375  0.35115893    -0.15020
C533        C  0.28009437  0.47719817  0.66635876     0.35610
C534        C  0.27952388  0.50869576  0.63105096    -0.26400
C535        C  0.25241201  0.52136870  0.61286834    -0.15640
C536        C  0.22590478  0.49825312  0.62981520     0.36690
N537        N  0.19916869  0.50321600  0.61024428    -0.89890
H538        H  0.20537061  0.45247461  0.34527028     0.17810
H539        H  0.30021762  0.52515271  0.61818770     0.17800
N540        N  0.30825685  0.46485028  0.68405729    -0.88920
H541        H  0.18164974  0.48353303  0.29317655     0.35180
H542        H  0.20603629  0.47347738  0.58808366     0.40270
H543        H  0.30406410  0.49373581  0.37332887     0.39890
H544        H  0.32630242  0.48078410  0.66699955     0.34780
O545        O  0.27581144  0.57744320  0.89393108    -0.81520
O546        O  0.26740306  0.87478165  0.91433666    -0.66210
O547        O  0.26435258  0.69164857  0.92476698    -1.12810
C548        C  0.18158579  0.76242586  0.84705692     1.05370
O549        O  0.21625189  0.90361892  0.92228868    -0.79420
O550        O  0.17551820  0.82354155  0.91793921    -0.67000
Ni551      Ni  0.30018486  0.62307591  0.91748235     1.34870
C552        C  0.17826469  0.76955600  0.93779816     0.84100
O553        O  0.29774663  0.77070940  0.95250558    -0.79960
O554        O  0.32523346  0.66689781  0.94214329    -0.90230
C555        C  0.24296812  0.91042369  0.92946293     0.83670
O556        O  0.31602496  0.66107175  0.87209230    -0.68440
O557        O  0.18801946  0.82075159  0.84596450    -0.87720
C558        C  0.32002012  0.72068742  0.86489945     0.84500
C559        C  0.32166417  0.72391167  0.95508677     1.06070
H560        H  0.24981735  0.78839810  0.85889669     0.37880
O561        O  0.23881423  0.78724163  0.88298286    -1.10380
O562        O  0.20246954  0.72393053  0.93532160    -0.67040
Ni563      Ni  0.23119476  0.69926616  0.89397967     1.26350
O564        O  0.30276279  0.77047903  0.88042419    -0.67260
O565        O  0.19668952  0.71153057  0.86454153    -0.79560
C566        C  0.25101132  0.56631684  0.91216294     0.83890
O567        O  0.22619527  0.60891696  0.90773202    -0.66730
Ni568      Ni  0.20390898  0.86016665  0.88331951     1.27450
Ni569      Ni  0.26804633  0.78152556  0.91811256     1.26060
H570        H  0.25609188  0.68443189  0.94976900     0.38430
O571        O  0.02494580  0.08741414  0.89939748    -0.81520
O572        O  0.01760245  0.38719399  0.91151229    -0.66210
O573        O  0.01365469  0.20498803  0.92685839    -1.12810
C574        C  0.43144710  0.26877524  0.84800022     1.05370
O575        O  0.46637159  0.41559652  0.92058912    -0.79420
O576        O  0.42492776  0.33536584  0.91870464    -0.67000
Ni577      Ni  0.04929086  0.13532716  0.92147654     1.34870
C578        C  0.42738661  0.28152314  0.93855882     0.84100
O579        O  0.04714243  0.28615543  0.95256705    -0.79960
O580        O  0.07393214  0.18067379  0.94541879    -0.90230
C581        C  0.99330989  0.42401975  0.92603049     0.83670
O582        O  0.06655052  0.16938407  0.87541591    -0.68440
O583        O  0.43642446  0.32842625  0.84692626    -0.87720
C584        C  0.07016804  0.22894361  0.86622851     0.84500
C585        C  0.07036059  0.23852081  0.95722754     1.06070
H586        H  0.49927719  0.29751569  0.85883074     0.37880
O587        O  0.48840022  0.29745514  0.88298694    -1.10380
O588        O  0.45171729  0.23616053  0.93646688    -0.67040
Ni589      Ni  0.48079077  0.21001380  0.89572138     1.26350
O590        O  0.05263203  0.27981992  0.88048969    -0.67260
O591        O  0.44693713  0.21938723  0.86597404    -0.79560
C592        C  0.49959268  0.07856307  0.91693588     0.83890
O593        O  0.47520865  0.12129960  0.91119487    -0.66730
Ni594      Ni  0.45319954  0.37003270  0.88295154     1.27450
Ni595      Ni  0.01773591  0.29431465  0.91792101     1.26060
H596        H  0.00514937  0.20005169  0.95194681     0.38430
O597        O  0.03233523  0.59634817  0.71440759    -0.81520
O598        O  0.02168399  0.89039330  0.73064849    -0.66210
O599        O  0.00972445  0.71158220  0.75468080    -1.12810
C600        C  0.42793085  0.77030854  0.01434046     1.05370
O601        O  0.47185253  0.92220793  0.74304183    -0.79420
O602        O  0.43223387  0.83754740  0.76532906    -0.67000
Ni603      Ni  0.04494218  0.63932496  0.75343254     1.34870
C604        C  0.42832063  0.77791814  0.77259622     0.84100
O605        O  0.05138871  0.78798965  0.77351768    -0.79960
O606        O  0.06104234  0.67817201  0.79080764    -0.90230
C607        C  0.99701974  0.93287736  0.72546690     0.83670
O608        O  0.07281994  0.67718698  0.71870477    -0.68440
O609        O  0.42378205  0.82788734  0.02680374    -0.87720
C610        C  0.06984882  0.73175610  0.69934905     0.84500
C611        C  0.06694895  0.73685307  0.79036343     1.06070
H612        H  0.49274837  0.81183734  0.02079782     0.37880
O613        O  0.48400082  0.80701609  0.71294036    -1.10380
O614        O  0.44564662  0.72816741  0.75709896    -0.67040
Ni615      Ni  0.48054352  0.71697437  0.71959417     1.26350
O616        O  0.04571380  0.77724702  0.70254730    -0.67260
O617        O  0.45184815  0.72413880  0.01797156    -0.79560
C618        C  0.50536084  0.58775995  0.70885368     0.83890
O619        O  0.48099169  0.62375796  0.72374767    -0.66730
Ni620      Ni  0.44788356  0.87506340  0.71976045     1.27450
Ni621      Ni  0.01694506  0.79997187  0.74399781     1.26060
H622        H  0.99881616  0.70968763  0.77877440     0.38430
O623        O  0.28369318  0.08267887  0.71837737    -0.81520
O624        O  0.27752331  0.37608686  0.72617898    -0.66210
O625        O  0.26239041  0.20159593  0.75527831    -1.12810
C626        C  0.17916475  0.26560739  0.01682093     1.05370
O627        O  0.22815130  0.41198318  0.73948655    -0.79420
O628        O  0.18606143  0.33135826  0.76511199    -0.67000
Ni629      Ni  0.29701126  0.12790492  0.75594280     1.34870
C630        C  0.18168230  0.27209970  0.77374159     0.84100
O631        O  0.30554195  0.27707259  0.77102889    -0.79960
O632        O  0.31386653  0.16919101  0.79202115    -0.90230
C633        C  0.25324660  0.41898446  0.72024849     0.83670
O634        O  0.32578562  0.16124829  0.72016670    -0.68440
O635        O  0.17630576  0.32276281  0.02920888    -0.87720
C636        C  0.32337009  0.21416953  0.69950756     0.84500
C637        C  0.32032668  0.22766183  0.78964316     1.06070
H638        H  0.24546753  0.30096077  0.02029438     0.37880
O639        O  0.23738027  0.29534613  0.71205048    -1.10380
O640        O  0.19825692  0.22113561  0.75856855    -0.67040
Ni641      Ni  0.23268834  0.20646401  0.72058789     1.26350
O642        O  0.29903554  0.25956703  0.70106406    -0.67260
O643        O  0.20243744  0.21735721  0.02010107    -0.79560
C644        C  0.25678719  0.07666527  0.71133876     0.83890
O645        O  0.23252286  0.11355956  0.72605736    -0.66730
Ni646      Ni  0.20233262  0.36593721  0.71859576     1.27450
Ni647      Ni  0.27096862  0.28812695  0.74215937     1.26060
H648        H  0.25153649  0.20243807  0.77946692     0.38430
C649        C  0.38477859  0.21779604  0.85181668    -0.26950
C650        C  0.40431221  0.25653454  0.83099482    -0.15020
C651        C  0.39564744  0.28597811  0.79677472     0.35610
C652        C  0.36769419  0.27713281  0.78497644    -0.26400
C653        C  0.34822640  0.23826542  0.80578303    -0.15640
C654        C  0.35717230  0.20813680  0.83964664     0.36690
N655        N  0.33825280  0.16957630  0.86290086    -0.89890
H656        H  0.39064417  0.19594025  0.87841854     0.17810
H657        H  0.36172012  0.29903368  0.75842108     0.17800
N658        N  0.41510683  0.32205439  0.77239514    -0.88920
H659        H  0.33686002  0.12747844  0.84976729     0.35180
H660        H  0.31587099  0.19871997  0.86762399     0.40270
H661        H  0.43685142  0.31907344  0.78156161     0.39890
H662        H  0.40394627  0.37231106  0.77095134     0.34780
C663        C  0.12574490  0.19127633  0.84128713    -0.26950
C664        C  0.09783250  0.23932570  0.84051853    -0.15020
C665        C  0.09822018  0.29954788  0.81893708     0.35610
C666        C  0.12628390  0.31041307  0.79906947    -0.26400
C667        C  0.15415769  0.26227484  0.79977852    -0.15640
C668        C  0.15378996  0.20213251  0.82140059     0.36690
N669        N  0.18198993  0.15257524  0.82348757    -0.89890
H670        H  0.12596440  0.14570328  0.85847920     0.17810
H671        H  0.12609292  0.35592782  0.78183141     0.17800
N672        N  0.07002771  0.34910641  0.81678980    -0.88920
H673        H  0.17784359  0.11128274  0.84051639     0.35180
H674        H  0.19761000  0.17359210  0.83561717     0.40270
H675        H  0.05445525  0.32813149  0.80455287     0.39890
H676        H  0.07420975  0.39045129  0.79982912     0.34780
C677        C  0.40592371  0.21698214  0.65788541    -0.26950
C678        C  0.40051350  0.26817375  0.96368646    -0.15020
C679        C  0.36936171  0.29891515  0.95809629     0.35610
C680        C  0.34485029  0.27786175  0.97992093    -0.26400
C681        C  0.35022605  0.22675168  0.00757696    -0.15640
C682        C  0.38140695  0.19583617  0.67969452     0.36690
N683        N  0.38919997  0.14408478  0.70757391    -0.89890
H684        H  0.42954632  0.19236256  0.66247488     0.17810
H685        H  0.32124270  0.30255253  0.97530424     0.17800
N686        N  0.36155313  0.35049003  0.93013016    -0.88920
H687        H  0.37976319  0.10318328  0.70302688     0.35180
H688        H  0.38001632  0.16210843  0.73288775     0.40270
H689        H  0.37096185  0.33248235  0.90487460     0.39890
H690        H  0.37072716  0.39170659  0.93475391     0.34780
C691        C  0.14197704  0.29906849  0.97134705    -0.26950
C692        C  0.15259738  0.25495855  0.00023189    -0.15020
C693        C  0.13483633  0.20876756  0.68354632     0.35610
C694        C  0.10674803  0.20658510  0.67024536    -0.26400
C695        C  0.09611331  0.25088955  0.97473254    -0.15640
C696        C  0.11372175  0.29740681  0.95826487     0.36690
N697        N  0.10353794  0.34033894  0.92738138    -0.89890
H698        H  0.15566769  0.33512384  0.95928907     0.17810
H699        H  0.09316925  0.17023996  0.68217538     0.17800
N700        N  0.14453147  0.16731048  0.71510118    -0.88920
H701        H  0.11993167  0.36953869  0.91758520     0.35180
H702        H  0.08319432  0.37346622  0.93633884     0.40270
H703        H  0.16489052  0.13369336  0.70688619     0.39890
H704        H  0.12797406  0.13863539  0.72511517     0.34780
C705        C  0.02295256  0.03708543  0.97526566    -0.26950
C706        C  0.49946077  0.03678195  0.95187218    -0.15020
C707        C  0.47383608  0.00712424  0.96583838     0.35610
C708        C  0.47266810  0.97757621  0.00141515    -0.26400
C709        C  0.99656342  0.97686092  0.69127314    -0.15640
C710        C  0.02152812  0.00881653  0.67772257     0.36690
N711        N  0.04468160  0.01762370  0.70014535    -0.89890
H712        H  0.04204707  0.06190521  0.96580198     0.17810
H713        H  0.45334012  0.95346115  0.01087855     0.17800
N714        N  0.44915216  0.00342832  0.94445038    -0.88920
H715        H  0.06646986  0.99268850  0.68915727     0.35180
H716        H  0.04071958  0.99799410  0.72677765     0.40270
H717        H  0.45400043  0.01850398  0.91717221     0.39890
H718        H  0.42901580  0.03567106  0.95484441     0.34780
C719        C  0.47680337  0.46692211  0.65403846    -0.26950
C720        C  0.99611068  0.46914046  0.95435466    -0.15020
C721        C  0.01907009  0.50907262  0.95115662     0.35610
C722        C  0.02214396  0.54461751  0.98082428    -0.26400
C723        C  0.50272762  0.54260901  0.68045651    -0.15640
C724        C  0.48003487  0.50204583  0.68378513     0.36690
N725        N  0.46124012  0.49157245  0.71734817    -0.89890
H726        H  0.45976637  0.43504524  0.65736713     0.17810
H727        H  0.03924496  0.57633958  0.97754654     0.17800
N728        N  0.03852333  0.51796903  0.91789874    -0.88920
H729        H  0.43804963  0.51267754  0.71356659     0.35180
H730        H  0.46733693  0.51426959  0.73873648     0.40270
H731        H  0.03236219  0.49556790  0.89643855     0.39890
H732        H  0.06145881  0.49536538  0.92222959     0.34780
C733        C  0.40328693  0.70671762  0.82015903    -0.26950
C734        C  0.40093490  0.76596990  0.79782713    -0.15020
C735        C  0.37134033  0.80888839  0.79626813     0.35610
C736        C  0.34506501  0.79185908  0.81735297    -0.26400
C737        C  0.34741314  0.73259887  0.83967392    -0.15640
C738        C  0.37701000  0.68970668  0.84125790     0.36690
N739        N  0.38065097  0.63047597  0.86544620    -0.89890
H740        H  0.42579863  0.67337845  0.82107968     0.17810
H741        H  0.32255449  0.82520270  0.81643500     0.17800
N742        N  0.36769724  0.86817336  0.77211847    -0.88920
H743        H  0.40420892  0.60795039  0.86570999     0.35180
H744        H  0.37010893  0.59620211  0.85487012     0.40270
H745        H  0.37822071  0.90243046  0.78273872     0.39890
H746        H  0.34413840  0.89068644  0.77184499     0.34780
C747        C  0.13723342  0.70432638  0.84559593    -0.26910
C748        C  0.15337097  0.75440595  0.83043968    -0.15020
C749        C  0.14001663  0.80007052  0.80313640     0.35610
C750        C  0.11121789  0.79514610  0.79185202    -0.26400
C751        C  0.09509607  0.74506154  0.80701540    -0.15640
C752        C  0.10845064  0.69938276  0.83429705     0.36690
N753        N  0.09265666  0.64851673  0.85119398    -0.89890
H754        H  0.14651577  0.66963237  0.86723692     0.17810
H755        H  0.10192508  0.82977750  0.77018687     0.17800
N756        N  0.15582145  0.85087476  0.78618879    -0.88920
H757        H  0.08879438  0.65480149  0.87913271     0.35180
H758        H  0.10744177  0.60215236  0.84732721     0.40270
H759        H  0.14104645  0.89725826  0.79003199     0.39890
H760        H  0.15966407  0.84451537  0.75825685     0.34780
C761        C  0.36238875  0.69034293  0.99677353    -0.26950
C762        C  0.34798837  0.73738205  0.97127325    -0.15020
C763        C  0.36142838  0.79222031  0.95767637     0.35610
C764        C  0.38828048  0.80133865  0.97132399    -0.26400
C765        C  0.40229073  0.75525160  0.99745905    -0.15640
C766        C  0.38944950  0.69902819  0.01035714     0.36690
N767        N  0.40336946  0.65227921  0.03787148    -0.89890
H768        H  0.35232249  0.64721866  0.00624775     0.17810
H769        H  0.39830355  0.84433757  0.96140843     0.17800
N770        N  0.34875781  0.83676119  0.92879229    -0.88920
H771        H  0.39592273  0.60687194  0.70290956     0.35180
H772        H  0.40431388  0.66816989  0.72445463     0.40270
H773        H  0.36567690  0.83346488  0.90641447     0.39890
H774        H  0.34487030  0.88535163  0.93715453     0.34780
C775        C  0.12990502  0.81479383  0.64203981    -0.26950
C776        C  0.15144925  0.75876119  0.96347813    -0.15020
C777        C  0.14501759  0.69430111  0.97304073     0.35610
C778        C  0.11771667  0.68728399  0.99442382    -0.26400
C779        C  0.09626123  0.74305868  0.00680186    -0.15640
C780        C  0.10256322  0.80780832  0.66351726     0.36690
N781        N  0.08233528  0.86729549  0.67579779    -0.89890
H782        H  0.13430584  0.86461524  0.63485654     0.17810
H783        H  0.11334990  0.63740784  0.00150223     0.17800
N784        N  0.16512815  0.63483696  0.96071514    -0.88920
H785        H  0.07972987  0.86400025  0.70420930     0.35180
H786        H  0.06076742  0.87193424  0.66573708     0.40270
H787        H  0.18658505  0.62997633  0.97106369     0.39890
H788        H  0.16789624  0.63849965  0.93230578     0.34780
C789        C  0.22408732  0.02172071  0.01072791    -0.26950
C790        C  0.25391994  0.03185458  0.68245280    -0.15020
C791        C  0.27973333  0.00411773  0.65803528     0.35610
C792        C  0.27518244  0.96523324  0.96415632    -0.26400
C793        C  0.24559767  0.95494151  0.95860431    -0.15640
C794        C  0.21965458  0.98371001  0.98254694     0.36690
N795        N  0.18884209  0.97401825  0.97867119    -0.89890
H796        H  0.20411119  0.04291077  0.02883564     0.17810
H797        H  0.29508053  0.94425374  0.94595818     0.17800
N798        N  0.31048040  0.01484942  0.66135698    -0.88920
H799        H  0.17229528  0.00160487  0.99699432     0.35180
H800        H  0.18839151  0.92377494  0.98591933     0.40270
H801        H  0.31049784  0.06527861  0.65413303     0.39890
H802        H  0.32698334  0.98779763  0.64278216     0.34780
C803        C  0.22603193  0.46908066  0.66567557    -0.26950
C804        C  0.25281988  0.45835627  0.68439372    -0.15020
C805        C  0.28011972  0.47738167  0.99962490     0.35610
C806        C  0.27954184  0.50876865  0.96428900    -0.26400
C807        C  0.25241701  0.52142199  0.94612958    -0.15640
C808        C  0.22591652  0.49832913  0.96311775     0.36690
N809        N  0.19917087  0.50323578  0.94357037    -0.89890
H810        H  0.20535958  0.45252440  0.67847036     0.17810
H811        H  0.30023925  0.52515556  0.95138975     0.17800
N812        N  0.30828701  0.46510037  0.01731112    -0.88920
H813        H  0.18166141  0.48359359  0.62635942     0.35180
H814        H  0.20603018  0.47344517  0.92143006     0.40270
H815        H  0.30402357  0.49383025  0.70660434     0.39890
H816        H  0.32632975  0.48098598  0.00022558     0.34780
O817        O  0.77576533  0.57734417  0.22729679    -0.81520
O818        O  0.76739101  0.87486497  0.24726032    -0.66210
O819        O  0.76427255  0.69180805  0.25788385    -1.12810
C820        C  0.68144321  0.76244871  0.18028384     1.05370
O821        O  0.71626222  0.90382858  0.25527744    -0.79420
O822        O  0.67547718  0.82373881  0.25108917    -0.67000
Ni823      Ni  0.80018308  0.62343197  0.25053384     1.34870
C824        C  0.67822965  0.76977997  0.27097325     0.84100
O825        O  0.79744676  0.77093793  0.28570994    -0.79960
O826        O  0.82533277  0.66779380  0.27482524    -0.90230
C827        C  0.74300432  0.91058302  0.26239739     0.83670
O828        O  0.81568351  0.66121223  0.20494090    -0.68440
O829        O  0.68790467  0.82075876  0.17911607    -0.87720
C830        C  0.81978911  0.72074010  0.19780287     0.84500
C831        C  0.82160248  0.72469157  0.28799601     1.06070
H832        H  0.74974125  0.78838453  0.19192642     0.37880
O833        O  0.73874073  0.78729113  0.21601519    -1.10380
O834        O  0.70242924  0.72414718  0.26849335    -0.67040
Ni835      Ni  0.73111037  0.69933022  0.22714215     1.26350
O836        O  0.80267146  0.77050313  0.21348542    -0.67260
O837        O  0.69656067  0.71154903  0.19776278    -0.79560
C838        C  0.75094266  0.56639135  0.24554968     0.83890
O839        O  0.72613154  0.60899826  0.24105052    -0.66730
Ni840      Ni  0.70384994  0.86026160  0.21638467     1.27450
Ni841      Ni  0.76792833  0.78166316  0.25115971     1.26060
H842        H  0.75604730  0.68458098  0.28289928     0.38430
O843        O  0.52486814  0.08742831  0.23264806    -0.81520
O844        O  0.51765215  0.38713114  0.24491357    -0.66210
O845        O  0.51364215  0.20494398  0.26016052    -1.12810
C846        C  0.93145686  0.26877420  0.18141234     1.05370
O847        O  0.96629035  0.41584698  0.25389662    -0.79420
O848        O  0.92487291  0.33557624  0.25199141    -0.67000
Ni849      Ni  0.54925600  0.13524828  0.25471948     1.34870
C850        C  0.92736947  0.28184340  0.27193642     0.84100
O851        O  0.54716484  0.28596169  0.28591830    -0.79960
O852        O  0.57393491  0.18049919  0.27865625    -0.90230
C853        C  0.49336690  0.42399101  0.25942538     0.83670
O854        O  0.56649136  0.16936496  0.20866137    -0.68440
O855        O  0.93645985  0.32842017  0.18024481    -0.87720
C856        C  0.57014626  0.22891713  0.19952811     0.84500
C857        C  0.57038396  0.23829794  0.29051830     1.06070
H858        H  0.99927287  0.29760363  0.19222131     0.37880
O859        O  0.98838521  0.29763630  0.21637389    -1.10380
O860        O  0.95174145  0.23659794  0.26994461    -0.67040
Ni861      Ni  0.98077842  0.21023186  0.22922521     1.26350
O862        O  0.55264274  0.27978180  0.21383493    -0.67260
O863        O  0.94691171  0.21947039  0.19948663    -0.79560
C864        C  0.99957023  0.07889762  0.25068318     0.83890
O865        O  0.97518728  0.12157082  0.24484695    -0.66730
Ni866      Ni  0.95317406  0.37017998  0.21625947     1.27450
Ni867      Ni  0.51775154  0.29425854  0.25127139     1.26060
H868        H  0.50514608  0.19996720  0.28525001     0.38430
O869        O  0.53254778  0.59502244  0.04816794    -0.81520
O870        O  0.52148958  0.88947629  0.06345748    -0.66210
O871        O  0.50979087  0.71066279  0.08809476    -1.12810
C872        C  0.92730430  0.77300792  0.34845219     1.05370
O873        O  0.97178142  0.92212615  0.07637168    -0.79420
O874        O  0.93215168  0.83744170  0.09850724    -0.67000
Ni875      Ni  0.54505310  0.63852613  0.08707166     1.34870
C876        C  0.92822304  0.77781321  0.10571301     0.84100
O877        O  0.55116568  0.78773384  0.10683130    -0.79960
O878        O  0.56099408  0.67796273  0.12433104    -0.90230
C879        C  0.49681092  0.93176271  0.05805346     0.83670
O880        O  0.57298266  0.67618574  0.05229225    -0.68440
O881        O  0.92317243  0.82994746  0.36167604    -0.87720
C882        C  0.57003558  0.73066774  0.03285615     0.84500
C883        C  0.56676345  0.73678141  0.12380097     1.06070
H884        H  0.99238602  0.81422063  0.35450824     0.37880
O885        O  0.98400910  0.80697264  0.04623240    -1.10380
O886        O  0.94559740  0.72808913  0.09024506    -0.67040
Ni887      Ni  0.98056660  0.71692570  0.05284311     1.26350
O888        O  0.54586112  0.77606773  0.03587711    -0.67260
O889        O  0.95148916  0.72711461  0.35118387    -0.79560
C890        C  0.00538617  0.58768986  0.04215276     0.83890
O891        O  0.98100361  0.62372145  0.05698887    -0.66730
Ni892      Ni  0.94787599  0.87499326  0.05299059     1.27450
Ni893      Ni  0.51688035  0.79905241  0.07709689     1.26060
H894        H  0.49885410  0.70898303  0.11218076     0.38430
O895        O  0.78371733  0.08257799  0.05175868    -0.81520
O896        O  0.77752287  0.37598847  0.05949491    -0.66210
O897        O  0.76240809  0.20150514  0.08863980    -1.12810
C898        C  0.67926265  0.26517919  0.35000097     1.05370
O899        O  0.72814163  0.41189694  0.07274997    -0.79420
O900        O  0.68606238  0.33127252  0.09843182    -0.67000
Ni901      Ni  0.79703714  0.12783302  0.08931017     1.34870
C902        C  0.68168944  0.27201793  0.10709340     0.84100
O903        O  0.80556150  0.27701591  0.10436730    -0.79960
O904        O  0.81389012  0.16914571  0.12538078    -0.90230
C905        C  0.75324908  0.41886576  0.05352606     0.83670
O906        O  0.82580781  0.16117795  0.05352443    -0.68440
O907        O  0.67637181  0.32231053  0.36243113    -0.87720
C908        C  0.82338427  0.21408785  0.03285466     0.84500
C909        C  0.82034804  0.22761906  0.12299504     1.06070
H910        H  0.74550791  0.30066030  0.35353046     0.37880
O911        O  0.73738274  0.29519737  0.04538995    -1.10380
O912        O  0.69827109  0.22102937  0.09194828    -0.67040
Ni913      Ni  0.73269636  0.20631430  0.05396309     1.26350
O914        O  0.79904151  0.25946196  0.03440295    -0.67260
O915        O  0.70255054  0.21695985  0.35326527    -0.79560
C916        C  0.75681047  0.07651976  0.04474598     0.83890
O917        O  0.73254522  0.11340587  0.05946987    -0.66730
Ni918      Ni  0.70232558  0.36578355  0.05189517     1.27450
Ni919      Ni  0.77097729  0.28803325  0.07549792     1.26060
H920        H  0.75155932  0.20236033  0.11283091     0.38430
C921        C  0.88477469  0.21780002  0.18521742    -0.26950
C922        C  0.90433516  0.25647289  0.16438889    -0.15020
C923        C  0.89569814  0.28584218  0.13014206     0.35610
C924        C  0.86774314  0.27701874  0.11833264    -0.26400
C925        C  0.84824681  0.23822678  0.13914785    -0.15640
C926        C  0.85716914  0.20815014  0.17303309     0.36690
N927        N  0.83822459  0.16965590  0.19629584    -0.89890
H928        H  0.89061585  0.19599647  0.21183650     0.17810
H929        H  0.86179117  0.29887038  0.09176111     0.17800
N930        N  0.91518898  0.32181837  0.10574603    -0.88920
H931        H  0.83682495  0.12754076  0.18318191     0.35180
H932        H  0.81584771  0.19883459  0.20099211     0.40270
H933        H  0.93693853  0.31878056  0.11491141     0.39890
H934        H  0.90405978  0.37209448  0.10427616     0.34780
C935        C  0.62572638  0.19123213  0.17461754    -0.26950
C936        C  0.59781971  0.23929341  0.17383664    -0.15020
C937        C  0.59822183  0.29952469  0.15226979     0.35610
C938        C  0.62629279  0.31037748  0.13241589    -0.26400
C939        C  0.65416072  0.26222116  0.13313043    -0.15640
C940        C  0.65378013  0.20207979  0.15475020     0.36690
N941        N  0.68197532  0.15251328  0.15685287    -0.89890
H942        H  0.62593375  0.14565725  0.19180535     0.17810
H943        H  0.62611153  0.35589559  0.11518314     0.17800
N944        N  0.57003618  0.34910379  0.15012305    -0.88920
H945        H  0.67781904  0.11122382  0.17387801     0.35180
H946        H  0.69759078  0.17352355  0.16899440     0.40270
H947        H  0.55446192  0.32815427  0.13787425     0.39890
H948        H  0.57422825  0.39045366  0.13317308     0.34780
C949        C  0.90593413  0.21693462  0.99121836    -0.26950
C950        C  0.90050587  0.26843655  0.29704190    -0.15020
C951        C  0.86934804  0.29905496  0.29141982     0.35610
C952        C  0.84485617  0.27786144  0.31320342    -0.26400
C953        C  0.85026338  0.22672734  0.34084066    -0.15640
C954        C  0.88142104  0.19577903  0.01303102     0.36690
N955        N  0.88922044  0.14402141  0.04090529    -0.89890
H956        H  0.92955797  0.19231645  0.99580299     0.17810
H957        H  0.82123955  0.30245462  0.30856825     0.17800
N958        N  0.86151583  0.35064006  0.26346581    -0.88920
H959        H  0.87978333  0.10312028  0.03635838     0.35180
H960        H  0.88004135  0.16203797  0.06622196     0.40270
H961        H  0.87093899  0.33267454  0.23820534     0.39890
H962        H  0.87065812  0.39188972  0.26810850     0.34780
C963        C  0.64194811  0.29898392  0.30469633    -0.26950
C964        C  0.65270992  0.25452650  0.33338529    -0.15020
C965        C  0.63482819  0.20844760  0.01688858     0.35610
C966        C  0.60676548  0.20617570  0.00353893    -0.26400
C967        C  0.59616325  0.25056626  0.30801017    -0.15640
C968        C  0.61366329  0.29737736  0.29167502     0.36690
N969        N  0.60334123  0.34068092  0.26097753    -0.89890
H970        H  0.65554844  0.33528129  0.29275215     0.17810
H971        H  0.59318713  0.16983001  0.01546769     0.17800
N972        N  0.64449562  0.16706192  0.04847639    -0.88920
H973        H  0.61967717  0.37005311  0.25124077     0.35180
H974        H  0.58299980  0.37362366  0.27012375     0.40270
H975        H  0.66487963  0.13347732  0.04030837     0.39890
H976        H  0.62794827  0.13834845  0.05846716     0.34780
C977        C  0.52289373  0.03718464  0.30853624    -0.26950
C978        C  0.99943676  0.03741206  0.28573439    -0.15020
C979        C  0.97377933  0.00797203  0.29987403     0.35610
C980        C  0.97265916  0.97863378  0.33550254    -0.26400
C981        C  0.49647704  0.97577926  0.02387691    -0.15640
C982        C  0.52142218  0.00792835  0.01052435     0.36690
N983        N  0.54446355  0.01673867  0.03310339    -0.89890
H984        H  0.54198651  0.06199873  0.29905914     0.17810
H985        H  0.95331801  0.95463027  0.34509115     0.17800
N986        N  0.94901730  0.00424972  0.27861333    -0.88920
H987        H  0.56629847  0.99193061  0.02217418     0.35180
H988        H  0.54043668  0.99698596  0.05969703     0.40270
H989        H  0.95383511  0.01905354  0.25128897     0.39890
H990        H  0.92893824  0.03668921  0.28898450     0.34780
C991        C  0.97684346  0.46684007  0.98734918    -0.26950
C992        C  0.49617856  0.46911847  0.28773842    -0.15020
C993        C  0.51913555  0.50905798  0.28452138     0.35610
C994        C  0.52220957  0.54463470  0.31417543    -0.26400
C995        C  0.00277697  0.54250870  0.01376439    -0.15640
C996        C  0.98008922  0.50193464  0.01709944     0.36690
N997        N  0.96131516  0.49142317  0.05067348    -0.89890
H998        H  0.95980807  0.43495920  0.99068084     0.17810
H999        H  0.53930792  0.57636380  0.31088366     0.17800
N1000       N  0.53858127  0.51794002  0.25125545    -0.88920
H1001       H  0.93811732  0.51248830  0.04691044     0.35180
H1002       H  0.96741276  0.51413520  0.07205611     0.40270
H1003       H  0.53242821  0.49548884  0.22980893     0.39890
H1004       H  0.56152196  0.49538188  0.25558664     0.34780
C1005       C  0.90302017  0.70628327  0.15291784    -0.26950
C1006       C  0.90078090  0.76581895  0.13083492    -0.15020
C1007       C  0.87124034  0.80900921  0.12939720     0.35610
C1008       C  0.84492512  0.79202284  0.15041367    -0.26400
C1009       C  0.84717347  0.73253375  0.17253032    -0.15640
C1010       C  0.87670001  0.68928882  0.17392357     0.36690
N1011       N  0.88023492  0.62969752  0.19783920    -0.89890
H1012       H  0.92548073  0.67270891  0.15372295     0.17810
H1013       H  0.82246547  0.82560504  0.14962434     0.17800
N1014       N  0.86768805  0.86856298  0.10545109    -0.88920
H1015       H  0.90376415  0.60686432  0.19799043     0.35180
H1016       H  0.86955930  0.59583952  0.18709367     0.40270
H1017       H  0.87827310  0.90253888  0.11622941     0.39890
H1018       H  0.84414893  0.89126507  0.10521703     0.34780
C1019       C  0.63691621  0.70476649  0.17917280    -0.26910
C1020       C  0.65317043  0.75449310  0.16377840    -0.15020
C1021       C  0.63988115  0.79993986  0.13634722     0.35610
C1022       C  0.61105025  0.79507631  0.12512457    -0.26400
C1023       C  0.59483910  0.74527120  0.14048681    -0.15640
C1024       C  0.60810160  0.69989412  0.16794495     0.36690
N1025       N  0.59218539  0.64939415  0.18507699    -0.89890
H1026       H  0.64613924  0.67029961  0.20093342     0.17810
H1027       H  0.60181771  0.82946636  0.10333456     0.17800
N1028       N  0.65579486  0.85041941  0.11919557    -0.88920
H1029       H  0.58832542  0.65609730  0.21297328     0.35180
H1030       H  0.60688832  0.60287501  0.18140388     0.40270
H1031       H  0.64109684  0.89693943  0.12288289     0.39890
H1032       H  0.65962350  0.84371310  0.09129875     0.34780
C1033       C  0.86432305  0.68865171  0.32684682    -0.26950
C1034       C  0.84785128  0.73861879  0.30436096    -0.15020
C1035       C  0.85865189  0.79839976  0.29446200     0.35610
C1036       C  0.88514785  0.80827392  0.30877634    -0.26400
C1037       C  0.90149777  0.75850179  0.33147613    -0.15640
C1038       C  0.89102922  0.69817760  0.34085247     0.36690
N1039       N  0.90690823  0.64789568  0.36541069    -0.89890
H1040       H  0.85609957  0.64241647  0.33374702     0.17810
H1041       H  0.89336487  0.85451183  0.30185263     0.17800
N1042       N  0.84341416  0.84753940  0.26890440    -0.88920
H1043       H  0.89614378  0.60665749  0.03599257     0.35180
H1044       H  0.90451407  0.66795998  0.05754862     0.40270
H1045       H  0.84631220  0.82614190  0.24386522     0.39890
H1046       H  0.85425500  0.88871939  0.26482380     0.34780
C1047       C  0.62999580  0.81399770  0.97553991    -0.26950
C1048       C  0.65142941  0.75899937  0.29668781    -0.15020
C1049       C  0.64502753  0.69452827  0.30631122     0.35610
C1050       C  0.61774321  0.68749979  0.32772284    -0.26400
C1051       C  0.59627293  0.74326828  0.34007793    -0.15640
C1052       C  0.60268236  0.80686560  0.99702950     0.36690
N1053       N  0.58235358  0.86631196  0.00921128    -0.89890
H1054       H  0.63429596  0.86387816  0.96828715     0.17810
H1055       H  0.61340071  0.63761464  0.33483909     0.17800
N1056       N  0.66514945  0.63505404  0.29401791    -0.88920
H1057       H  0.57969753  0.86314213  0.03762234     0.35180
H1058       H  0.56082218  0.87076474  0.99909280     0.40270
H1059       H  0.68661191  0.63025580  0.30434416     0.39890
H1060       H  0.66789594  0.63863912  0.26560843     0.34780
C1061       C  0.72436629  0.02066914  0.34412178    -0.26950
C1062       C  0.75394082  0.03166682  0.01588159    -0.15020
C1063       C  0.77975728  0.00384559  0.99149158     0.35610
C1064       C  0.77525645  0.96628871  0.29661753    -0.26400
C1065       C  0.74571638  0.95504149  0.29152338    -0.15640
C1066       C  0.71989408  0.98274204  0.31593363     0.36690
N1067       N  0.68917015  0.97195651  0.31255078    -0.89890
H1068       H  0.70448878  0.04099216  0.36260775     0.17810
H1069       H  0.79510396  0.94620108  0.27805405     0.17800
N1070       N  0.81051094  0.01452985  0.99482118    -0.88920
H1071       H  0.67267176  0.99875875  0.33123190     0.35180
H1072       H  0.68919851  0.92145487  0.31960240     0.40270
H1073       H  0.81055403  0.06493736  0.98756084     0.39890
H1074       H  0.82701418  0.98740649  0.97627464     0.34780
C1075       C  0.72611398  0.46873943  0.99886473    -0.26950
C1076       C  0.75285345  0.45818476  0.01765709    -0.15020
C1077       C  0.78007440  0.47724787  0.33295235     0.35610
C1078       C  0.77946674  0.50878337  0.29765293    -0.26400
C1079       C  0.75232982  0.52149399  0.27951382    -0.15640
C1080       C  0.72583498  0.49837295  0.29649492     0.36690
N1081       N  0.69907296  0.50336321  0.27696520    -0.89890
H1082       H  0.70544931  0.45209337  0.01161216     0.17810
H1083       H  0.80015181  0.52524160  0.28476248     0.17800
N1084       N  0.80826244  0.46486104  0.35060296    -0.88920
H1085       H  0.68184232  0.48297568  0.95942379     0.35180
H1086       H  0.70591403  0.47364508  0.25479331     0.40270
H1087       H  0.80393287  0.49395793  0.03999916     0.39890
H1088       H  0.82629476  0.48079335  0.33352022     0.34780
O1089       O  0.77590696  0.57719239  0.56071803    -0.81520
O1090       O  0.76742862  0.87473783  0.58063326    -0.66210
O1091       O  0.76435144  0.69166390  0.59130247    -1.12810
C1092       C  0.68158274  0.76210752  0.51361023     1.05370
O1093       O  0.71629780  0.90365006  0.58863106    -0.79420
O1094       O  0.67554184  0.82349010  0.58443292    -0.67000
Ni1095     Ni  0.80028345  0.62331928  0.58399262     1.34870
C1096       C  0.67828262  0.76952948  0.60431461     0.84100
O1097       O  0.79748604  0.77088473  0.61913261    -0.79960
O1098       O  0.82538888  0.66772369  0.60832204    -0.90230
C1099       C  0.74303265  0.91045172  0.59575189     0.83670
O1100       O  0.81583359  0.66108297  0.53841455    -0.68440
O1101       O  0.68801066  0.82044589  0.51246913    -0.87720
C1102       C  0.81989816  0.72063566  0.53124757     0.84500
C1103       C  0.82163964  0.72464807  0.62146736     1.06070
H1104       H  0.74983252  0.78817870  0.52531722     0.37880
O1105       O  0.73882168  0.78708470  0.54940113    -1.10380
O1106       O  0.70248453  0.72389402  0.60185037    -0.67040
Ni1107     Ni  0.73121555  0.69910575  0.56052737     1.26350
O1108       O  0.80274479  0.77038827  0.54690399    -0.67260
O1109       O  0.69670044  0.71123236  0.53110431    -0.79560
C1110       C  0.75108135  0.56619711  0.57894718     0.83890
O1111       O  0.72626253  0.60876386  0.57442842    -0.66730
Ni1112     Ni  0.70391913  0.86001748  0.54973953     1.27450
Ni1113     Ni  0.76798763  0.78153061  0.58456136     1.26060
H1114       H  0.75611013  0.68445253  0.61631269     0.38430
O1115       O  0.52491122  0.08745102  0.56598970    -0.81520
O1116       O  0.51759760  0.38720539  0.57822859    -0.66210
O1117       O  0.51364985  0.20498431  0.59349460    -1.12810
C1118       C  0.93146269  0.26879858  0.51479062     1.05370
O1119       O  0.96636455  0.41576413  0.58727464    -0.79420
O1120       O  0.92490654  0.33557353  0.58536492    -0.67000
Ni1121     Ni  0.54928023  0.13532577  0.58805642     1.34870
C1122       C  0.92739815  0.28184674  0.60531482     0.84100
O1123       O  0.54715829  0.28608069  0.61922944    -0.79960
O1124       O  0.57394386  0.18062487  0.61198789    -0.90230
C1125       C  0.49329927  0.42404012  0.59273285     0.83670
O1126       O  0.56650650  0.16945356  0.54199468    -0.68440
O1127       O  0.93648743  0.32842807  0.51361971    -0.87720
C1128       C  0.57014471  0.22901483  0.53285272     0.84500
C1129       C  0.57038558  0.23843539  0.62383816     1.06070
H1130       H  0.99929736  0.29750968  0.52556917     0.37880
O1131       O  0.98841689  0.29755776  0.54972471    -1.10380
O1132       O  0.95176775  0.23659878  0.60332515    -0.67040
Ni1133     Ni  0.98077824  0.21017979  0.56259417     1.26350
O1134       O  0.55262346  0.27987187  0.54714919    -0.67260
O1135       O  0.94689929  0.21947699  0.53287094    -0.79560
C1136       C  0.99952664  0.07884401  0.58407906     0.83890
O1137       O  0.97515301  0.12154424  0.57823837    -0.66730
Ni1138     Ni  0.95322220  0.37014391  0.54963389     1.27450
Ni1139     Ni  0.51773326  0.29431525  0.58459208     1.26060
H1140       H  0.50515641  0.20000900  0.61858511     0.38430
O1141       O  0.53229635  0.59639802  0.38109732    -0.81520
O1142       O  0.52161097  0.89042188  0.39737432    -0.66210
O1143       O  0.50964387  0.71160781  0.42137687    -1.12810
C1144       C  0.92734199  0.77301241  0.68190351     1.05370
O1145       O  0.97178392  0.92221563  0.40958187    -0.79420
O1146       O  0.93213805  0.83754251  0.43175726    -0.67000
Ni1147     Ni  0.54485988  0.63935098  0.42015646     1.34870
C1148       C  0.92823906  0.77789951  0.43900807     0.84100
O1149       O  0.55129108  0.78799236  0.44026440    -0.79960
O1150       O  0.56090809  0.67817835  0.45757285    -0.90230
C1151       C  0.49695077  0.93289741  0.39215828     0.83670
O1152       O  0.57276997  0.67723265  0.38547606    -0.68440
O1153       O  0.92321465  0.82993649  0.69514327    -0.87720
C1154       C  0.56980957  0.73180063  0.36611828     0.84500
C1155       C  0.56683583  0.73683987  0.45711667     1.06070
H1156       H  0.99242895  0.81425110  0.68790756     0.37880
O1157       O  0.98400771  0.80703926  0.37947340    -1.10380
O1158       O  0.94562302  0.72816991  0.42355469    -0.67040
Ni1159     Ni  0.98056819  0.71699186  0.38612236     1.26350
O1160       O  0.54566457  0.77727020  0.36928448    -0.67260
O1161       O  0.95153624  0.72712787  0.68459675    -0.79560
C1162       C  0.00539470  0.58776793  0.37545411     0.83890
O1163       O  0.98101722  0.62378690  0.39030793    -0.66730
Ni1164     Ni  0.94787098  0.87505726  0.38622721     1.27450
Ni1165     Ni  0.51686815  0.79999504  0.41071043     1.26060
H1166       H  0.49871614  0.70971162  0.44546055     0.38430
O1167       O  0.78371631  0.08274099  0.38510703    -0.81520
O1168       O  0.77754767  0.37615741  0.39281219    -0.66210
O1169       O  0.76241335  0.20168472  0.42198722    -1.12810
C1170       C  0.67928934  0.26529216  0.68331545     1.05370
O1171       O  0.72817759  0.41204522  0.40614685    -0.79420
O1172       O  0.68608139  0.33143765  0.43180837    -0.67000
Ni1173     Ni  0.79703206  0.12799148  0.42266413     1.34870
C1174       C  0.68169905  0.27218302  0.44044644     0.84100
O1175       O  0.80558636  0.27716205  0.43769619    -0.79960
O1176       O  0.81388097  0.16930410  0.45873606    -0.90230
C1177       C  0.75326391  0.41904440  0.38688705     0.83670
O1178       O  0.82580970  0.16131372  0.38688222    -0.68440
O1179       O  0.67641378  0.32241213  0.69575408    -0.87720
C1180       C  0.82338486  0.21420351  0.36619725     0.84500
C1181       C  0.82035493  0.22776380  0.45633965     1.06070
H1182       H  0.74555805  0.30069009  0.68689620     0.37880
O1183       O  0.73739665  0.29539322  0.37874328    -1.10380
O1184       O  0.69827708  0.22120968  0.42528542    -0.67040
Ni1185     Ni  0.73270660  0.20651546  0.38730500     1.26350
O1186       O  0.79904560  0.25958657  0.36773999    -0.67260
O1187       O  0.70257046  0.21705159  0.68657595    -0.79560
C1188       C  0.75680967  0.07671258  0.37807922     0.83890
O1189       O  0.73254660  0.11361050  0.39279881    -0.66730
Ni1190     Ni  0.70234980  0.36598547  0.38528133     1.27450
Ni1191     Ni  0.77099639  0.28820345  0.40883570     1.26060
H1192       H  0.75156155  0.20255320  0.44617697     0.38430
C1193       C  0.88476087  0.21790204  0.51858896    -0.26950
C1194       C  0.90433762  0.25653949  0.49776219    -0.15020
C1195       C  0.89571790  0.28590433  0.46350843     0.35610
C1196       C  0.86776288  0.27710888  0.45168903    -0.26400
C1197       C  0.84825135  0.23834826  0.47250152    -0.15640
C1198       C  0.85715579  0.20827844  0.50639466     0.36690
N1199       N  0.83819431  0.16981655  0.52965441    -0.89890
H1200       H  0.89058994  0.19610306  0.54521299     0.17810
H1201       H  0.86182331  0.29895479  0.42511219     0.17800
N1202       N  0.91522619  0.32184513  0.43911557    -0.88920
H1203       H  0.83679088  0.12769818  0.51654574     0.35180
H1204       H  0.81582072  0.19901651  0.53433698     0.40270
H1205       H  0.93697452  0.31878397  0.44828885     0.39890
H1206       H  0.90410970  0.37212920  0.43763675     0.34780
C1207       C  0.62572726  0.19134822  0.50793649    -0.26950
C1208       C  0.59781993  0.23941118  0.50716458    -0.15020
C1209       C  0.59822417  0.29965693  0.48561048     0.35610
C1210       C  0.62629733  0.31052383  0.46576505    -0.26400
C1211       C  0.65416580  0.26236778  0.46647378    -0.15640
C1212       C  0.65378234  0.20220864  0.48807643     0.36690
N1213       N  0.68197641  0.15263550  0.49016939    -0.89890
H1214       H  0.62593445  0.14575939  0.52511196     0.17810
H1215       H  0.62611775  0.35605421  0.44854336     0.17800
N1216       N  0.57003874  0.34923766  0.48346782    -0.88920
H1217       H  0.67781847  0.11133206  0.50718149     0.35180
H1218       H  0.69759204  0.17362783  0.50232130     0.40270
H1219       H  0.55446683  0.32829863  0.47120878     0.39890
H1220       H  0.57423234  0.39059819  0.46652804     0.34780
C1221       C  0.90592531  0.21702128  0.32453493    -0.26950
C1222       C  0.90053397  0.26844184  0.63042092    -0.15020
C1223       C  0.86937676  0.29907153  0.62480376     0.35610
C1224       C  0.84488433  0.27786466  0.64657982    -0.26400
C1225       C  0.85029048  0.22670421  0.67420393    -0.15640
C1226       C  0.88141711  0.19587684  0.34636089     0.36690
N1227       N  0.88922205  0.14414782  0.37424804    -0.89890
H1228       H  0.92955173  0.19241940  0.32911806     0.17810
H1229       H  0.82126791  0.30246660  0.64194888     0.17800
N1230       N  0.86154583  0.35068182  0.59686217    -0.88920
H1231       H  0.87978486  0.10323681  0.36971892     0.35180
H1232       H  0.88004615  0.16218959  0.39956002     0.40270
H1233       H  0.87096438  0.33273511  0.57159628     0.39890
H1234       H  0.87069441  0.39191740  0.60151473     0.34780
C1235       C  0.64194075  0.29917501  0.63803900    -0.26950
C1236       C  0.65272336  0.25467197  0.66670260    -0.15020
C1237       C  0.63482722  0.20883367  0.35028178     0.35610
C1238       C  0.60674206  0.20665059  0.33697150    -0.26400
C1239       C  0.59616355  0.25072153  0.64133686    -0.15640
C1240       C  0.61365195  0.29756917  0.62502074     0.36690
N1241       N  0.60331615  0.34090850  0.59434194    -0.89890
H1242       H  0.65553076  0.33549940  0.62610759     0.17810
H1243       H  0.59314909  0.17034082  0.34891575     0.17800
N1244       N  0.64449778  0.16743670  0.38186553    -0.88920
H1245       H  0.61964226  0.37031120  0.58461770     0.35180
H1246       H  0.58296964  0.37381887  0.60350476     0.40270
H1247       H  0.66485634  0.13379022  0.37368296     0.39890
H1248       H  0.62792974  0.13879251  0.39188748     0.34780
C1249       C  0.52296506  0.03710733  0.64185672    -0.26950
C1250       C  0.99939907  0.03741555  0.61915018    -0.15020
C1251       C  0.97373806  0.00802037  0.63333271     0.35610
C1252       C  0.97264656  0.97868959  0.66896354    -0.26400
C1253       C  0.49651984  0.97686286  0.35795663    -0.15640
C1254       C  0.52148315  0.00884343  0.34443419     0.36690
N1255       N  0.54461311  0.01767251  0.36688441    -0.89890
H1256       H  0.54205769  0.06192120  0.63237474     0.17810
H1257       H  0.95330296  0.95471276  0.67858366     0.17800
N1258       N  0.94894508  0.00432685  0.61211351    -0.88920
H1259       H  0.56641192  0.99276138  0.35591229     0.35180
H1260       H  0.54063842  0.99803029  0.39351170     0.40270
H1261       H  0.95373892  0.01911834  0.58478291     0.39890
H1262       H  0.92888276  0.03678992  0.62250600     0.34780
C1263       C  0.97681764  0.46692393  0.32068776    -0.26950
C1264       C  0.49608633  0.46918726  0.62105277    -0.15020
C1265       C  0.51903963  0.50913316  0.61785553     0.35610
C1266       C  0.52210223  0.54469835  0.64751965    -0.26400
C1267       C  0.00277059  0.54258451  0.34707733    -0.15640
C1268       C  0.98007836  0.50201935  0.35043032     0.36690
N1269       N  0.96131477  0.49151932  0.38401393    -0.89890
H1270       H  0.95978182  0.43504341  0.32403136     0.17810
H1271       H  0.53920544  0.57641521  0.64424204     0.17800
N1272       N  0.53849636  0.51802831  0.58460005    -0.88920
H1273       H  0.93811683  0.51261388  0.38026588     0.35180
H1274       H  0.96743145  0.51421051  0.40539241     0.40270
H1275       H  0.53235272  0.49558503  0.56314464     0.39890
H1276       H  0.56143526  0.49547318  0.58894085     0.34780
C1277       C  0.90310625  0.70635933  0.48628410    -0.26950
C1278       C  0.90082378  0.76587579  0.46417772    -0.15020
C1279       C  0.87126477  0.80900265  0.46276590     0.35610
C1280       C  0.84497539  0.79196799  0.48382090    -0.26400
C1281       C  0.84726561  0.73249120  0.50595465    -0.15640
C1282       C  0.87681214  0.68931785  0.50732957     0.36690
N1283       N  0.88039371  0.62975031  0.53126287    -0.89890
H1284       H  0.92558053  0.67283261  0.48707423     0.17810
H1285       H  0.82250160  0.82550012  0.48304423     0.17800
N1286       N  0.86766663  0.86853755  0.43880614    -0.88920
H1287       H  0.90393164  0.60697548  0.53139520     0.35180
H1288       H  0.86973050  0.59583802  0.52054670     0.40270
H1289       H  0.87824904  0.90255458  0.44955191     0.39890
H1290       H  0.84411978  0.89119491  0.43860039     0.34780
C1291       C  0.63714831  0.70419073  0.51229830    -0.26910
C1292       C  0.65334976  0.75409704  0.49703725    -0.15020
C1293       C  0.64002922  0.79969161  0.46968551     0.35610
C1294       C  0.61119541  0.79488471  0.45846195    -0.26400
C1295       C  0.59500717  0.74498112  0.47373029    -0.15640
C1296       C  0.60832942  0.69935918  0.50105423     0.36690
N1297       N  0.59246563  0.64867476  0.51804765    -0.89890
H1298       H  0.64640763  0.66956623  0.53397869     0.17810
H1299       H  0.60192836  0.82945086  0.43675755     0.17800
N1300       N  0.65590433  0.85030390  0.45262800    -0.88920
H1301       H  0.58863140  0.65509708  0.54597326     0.35180
H1302       H  0.60719279  0.60222788  0.51423355     0.40270
H1303       H  0.64118953  0.89677428  0.45641264     0.39890
H1304       H  0.65971600  0.84379023  0.42471095     0.34780
C1305       C  0.86433168  0.68867708  0.66036609    -0.26950
C1306       C  0.84786879  0.73861664  0.63785638    -0.15020
C1307       C  0.85867303  0.79839004  0.62794189     0.35610
C1308       C  0.88517108  0.80827154  0.64224900    -0.26400
C1309       C  0.90152001  0.75851343  0.66495604    -0.15640
C1310       C  0.89104001  0.69821161  0.67436409     0.36690
N1311       N  0.90691327  0.64795932  0.69894156    -0.89890
H1312       H  0.85610435  0.64245011  0.66728268     0.17810
H1313       H  0.89339449  0.85449809  0.63530782     0.17800
N1314       N  0.84344086  0.84750855  0.60237060    -0.88920
H1315       H  0.89608940  0.60669084  0.36920032     0.35180
H1316       H  0.90448134  0.66794667  0.39077791     0.40270
H1317       H  0.84634159  0.82608768  0.57733790     0.39890
H1318       H  0.85428398  0.88868473  0.59827969     0.34780
C1319       C  0.62984859  0.81491464  0.30881464    -0.26950
C1320       C  0.65146299  0.75876178  0.63000742    -0.15020
C1321       C  0.64504609  0.69430071  0.63962079     0.35610
C1322       C  0.61774519  0.68729258  0.66101007    -0.26400
C1323       C  0.59627274  0.74307294  0.67335371    -0.15640
C1324       C  0.60250876  0.80789507  0.33028706     0.36690
N1325       N  0.58224608  0.86737402  0.34252442    -0.89890
H1326       H  0.63421973  0.86475146  0.30160339     0.17810
H1327       H  0.61339391  0.63741385  0.66812401     0.17800
N1328       N  0.66517324  0.63481802  0.62734394    -0.88920
H1329       H  0.57962647  0.86413253  0.37093560     0.35180
H1330       H  0.56068906  0.87193698  0.33244950     0.40270
H1331       H  0.68662559  0.63001661  0.63769470     0.39890
H1332       H  0.66794665  0.63840050  0.59893440     0.34780
C1333       C  0.72437155  0.02061813  0.67744163    -0.26950
C1334       C  0.75393717  0.03188557  0.34920272    -0.15020
C1335       C  0.77975788  0.00401050  0.32483273     0.35610
C1336       C  0.77526527  0.96625717  0.62993645    -0.26400
C1337       C  0.74573079  0.95495994  0.62485794    -0.15640
C1338       C  0.71990614  0.98265440  0.64926593     0.36690
N1339       N  0.68918800  0.97182377  0.64589390    -0.89890
H1340       H  0.70449337  0.04093442  0.69592894     0.17810
H1341       H  0.79511365  0.94618085  0.61137095     0.17800
N1342       N  0.81052221  0.01458564  0.32820437    -0.88920
H1343       H  0.67268630  0.99862272  0.66457310     0.35180
H1344       H  0.68923011  0.92131997  0.65295586     0.40270
H1345       H  0.81060541  0.06497952  0.32095137     0.39890
H1346       H  0.82702434  0.98742508  0.30967139     0.34780
C1347       C  0.72599905  0.46916862  0.33234855    -0.26950
C1348       C  0.75281162  0.45841176  0.35102647    -0.15020
C1349       C  0.78016586  0.47714406  0.66638640     0.35610
C1350       C  0.77958091  0.50863543  0.63107651    -0.26400
C1351       C  0.75245724  0.52131773  0.61291476    -0.15640
C1352       C  0.72595459  0.49821207  0.62988232     0.36690
N1353       N  0.69920819  0.50316823  0.61032996    -0.89890
H1354       H  0.70533350  0.45261893  0.34517071     0.17810
H1355       H  0.80027150  0.52508408  0.61819609     0.17800
N1356       N  0.80833990  0.46478128  0.68406306    -0.88920
H1357       H  0.68157865  0.48373288  0.29310118     0.35180
H1358       H  0.70606530  0.47341928  0.58817239     0.40270
H1359       H  0.80406219  0.49382092  0.37315640     0.39890
H1360       H  0.82638181  0.48069444  0.66698886     0.34780
O1361       O  0.77601865  0.57694298  0.89392927    -0.81520
O1362       O  0.76743215  0.87452745  0.91399798    -0.66210
O1363       O  0.76442176  0.69140620  0.92453914    -1.12810
C1364       C  0.68162115  0.76192546  0.84690947     1.05370
O1365       O  0.71630039  0.90333829  0.92204714    -0.79420
O1366       O  0.67558839  0.82307665  0.91782533    -0.67000
Ni1367     Ni  0.80037025  0.62311748  0.91721043     1.34870
C1368       C  0.67838188  0.76905831  0.93766261     0.84100
O1369       O  0.79750302  0.77063467  0.95244103    -0.79960
O1370       O  0.82545741  0.66755661  0.94154333    -0.90230
C1371       C  0.74303400  0.91019334  0.92914275     0.83670
O1372       O  0.81587232  0.66098054  0.87164206    -0.68440
O1373       O  0.68800682  0.82028956  0.84583322    -0.87720
C1374       C  0.81994008  0.72053997  0.86452652     0.84500
C1375       C  0.82167873  0.72445040  0.95473006     1.06070
H1376       H  0.74985650  0.78809438  0.85861568     0.37880
O1377       O  0.73885515  0.78690232  0.88270127    -1.10380
O1378       O  0.70259182  0.72347342  0.93511194    -0.67040
Ni1379     Ni  0.73129349  0.69886957  0.89375555     1.26350
O1380       O  0.80278119  0.77025979  0.88020865    -0.67260
O1381       O  0.69677026  0.71102111  0.86434834    -0.79560
C1382       C  0.75118311  0.56594106  0.91213097     0.83890
O1383       O  0.72636678  0.60849091  0.90758358    -0.66730
Ni1384     Ni  0.70391732  0.85977258  0.88313166     1.27450
Ni1385     Ni  0.76801837  0.78130478  0.91786313     1.26060
H1386       H  0.75618553  0.68413311  0.94954603     0.38430
O1387       O  0.52492195  0.08729844  0.89887481    -0.81520
O1388       O  0.51764082  0.38685328  0.91158293    -0.66210
O1389       O  0.51363253  0.20463637  0.92662612    -1.12810
C1390       C  0.93151233  0.26860595  0.84812791     1.05370
O1391       O  0.96632881  0.41575702  0.92056675    -0.79420
O1392       O  0.92490010  0.33548979  0.91866898    -0.67000
Ni1393     Ni  0.54926181  0.13496641  0.92112199     1.34870
C1394       C  0.92739643  0.28178612  0.93863932     0.84100
O1395       O  0.54717908  0.28553854  0.95248068    -0.79960
O1396       O  0.57391803  0.18005966  0.94519879    -0.90230
C1397       C  0.49336346  0.42373209  0.92609787     0.83670
O1398       O  0.56654191  0.16927345  0.87514543    -0.68440
O1399       O  0.93651924  0.32825243  0.84693453    -0.87720
C1400       C  0.57015773  0.22886005  0.86605883     0.84500
C1401       C  0.57038795  0.23784014  0.95707666     1.06070
H1402       H  0.99931368  0.29744997  0.85891396     0.37880
O1403       O  0.98842915  0.29752005  0.88306768    -1.10380
O1404       O  0.95178001  0.23656890  0.93667997    -0.67040
Ni1405     Ni  0.98082043  0.21013489  0.89597133     1.26350
O1406       O  0.55261368  0.27966253  0.88037977    -0.67260
O1407       O  0.94695599  0.21932359  0.86623033    -0.79560
C1408       C  0.99960808  0.07882332  0.91750097     0.83890
O1409       O  0.97522870  0.12149478  0.91164448    -0.66730
Ni1410     Ni  0.95321798  0.37005977  0.88293845     1.27450
Ni1411     Ni  0.51773702  0.29397770  0.91784368     1.26060
H1412       H  0.50512751  0.19956475  0.95170624     0.38430
O1413       O  0.53222463  0.59634777  0.71443189    -0.81520
O1414       O  0.52168044  0.89027974  0.73066231    -0.66210
O1415       O  0.50965610  0.71153561  0.75473051    -1.12810
C1416       C  0.92732510  0.77298349  0.01517183     1.05370
O1417       O  0.97185006  0.92219267  0.74301767    -0.79420
O1418       O  0.93224415  0.83747560  0.76521025    -0.67000
Ni1419     Ni  0.54484925  0.63923763  0.75347129     1.34870
C1420       C  0.92833583  0.77783646  0.77243522     0.84100
O1421       O  0.55136592  0.78783127  0.77352737    -0.79960
O1422       O  0.56094735  0.67802594  0.79086327    -0.90230
C1423       C  0.49703186  0.93280982  0.72547759     0.83670
O1424       O  0.57275988  0.67707231  0.71876577    -0.68440
O1425       O  0.92318149  0.82990186  0.02842250    -0.87720
C1426       C  0.56980175  0.73162734  0.69939646     0.84500
C1427       C  0.56689619  0.73667327  0.79038929     1.06070
H1428       H  0.99239668  0.81418211  0.02127353     0.37880
O1429       O  0.98406652  0.80704139  0.71287676    -1.10380
O1430       O  0.94571091  0.72811872  0.75696201    -0.67040
Ni1431     Ni  0.98064039  0.71698220  0.71950902     1.26350
O1432       O  0.54565607  0.77710195  0.70256240    -0.67260
O1433       O  0.95151947  0.72710900  0.01787336    -0.79560
C1434       C  0.00547815  0.58774542  0.70881070     0.83890
O1435       O  0.98110060  0.62376519  0.72366742    -0.66730
Ni1436     Ni  0.94792819  0.87504023  0.71967522     1.27450
Ni1437     Ni  0.51690673  0.79988789  0.74402904     1.26060
H1438       H  0.49876112  0.70966578  0.77883364     0.38430
O1439       O  0.78371751  0.08271200  0.71841735    -0.81520
O1440       O  0.77759911  0.37609948  0.72625287    -0.66210
O1441       O  0.76243289  0.20161943  0.75532380    -1.12810
C1442       C  0.67923685  0.26491247  0.01665381     1.05370
O1443       O  0.72822840  0.41200361  0.73955317    -0.79420
O1444       O  0.68610794  0.33144259  0.76514684    -0.67000
Ni1445     Ni  0.79704482  0.12790643  0.75598702     1.34870
C1446       C  0.68172305  0.27218712  0.77376706     0.84100
O1447       O  0.80561262  0.27703093  0.77109463    -0.79960
O1448       O  0.81390777  0.16914563  0.79207818    -0.90230
C1449       C  0.75332395  0.41899654  0.72031349     0.83670
O1450       O  0.82582654  0.16124358  0.72021365    -0.68440
O1451       O  0.67634575  0.32206529  0.02906059    -0.87720
C1452       C  0.82341207  0.21416891  0.69955652     0.84500
C1453       C  0.82038599  0.22759816  0.78970894     1.06070
H1454       H  0.74550187  0.30044759  0.02017893     0.37880
O1455       O  0.73743690  0.29540256  0.71210416    -1.10380
O1456       O  0.69829893  0.22121969  0.75859978    -0.67040
Ni1457     Ni  0.73272864  0.20653108  0.72062541     1.26350
O1458       O  0.79908403  0.25957929  0.70112317    -0.67260
O1459       O  0.70253242  0.21671510  0.01992974    -0.79560
C1460       C  0.75680951  0.07671200  0.71137936     0.83890
O1461       O  0.73254714  0.11363244  0.72608595    -0.66730
Ni1462     Ni  0.70239836  0.36601756  0.71864229     1.27450
Ni1463     Ni  0.77102888  0.28814043  0.74222149     1.26060
H1464       H  0.75157672  0.20245831  0.77951111     0.38430
C1465       C  0.88482260  0.21765694  0.85192997    -0.26950
C1466       C  0.90439719  0.25629502  0.83109877    -0.15020
C1467       C  0.89577148  0.28566105  0.79684749     0.35610
C1468       C  0.86780950  0.27688519  0.78503944    -0.26400
C1469       C  0.84829601  0.23813888  0.80585920    -0.15640
C1470       C  0.85720965  0.20805035  0.83974521     0.36690
N1471       N  0.83824802  0.16959417  0.86300850    -0.89890
H1472       H  0.89065599  0.19585710  0.87855230     0.17810
H1473       H  0.86186398  0.29874012  0.75846615     0.17800
N1474       N  0.91527921  0.32159129  0.77244729    -0.88920
H1475       H  0.83682929  0.12749357  0.84989341     0.35180
H1476       H  0.81587927  0.19880875  0.86770488     0.40270
H1477       H  0.93703484  0.31850191  0.78160764     0.39890
H1478       H  0.90417144  0.37188142  0.77097754     0.34780
C1479       C  0.62575819  0.19130998  0.84121760    -0.26950
C1480       C  0.59783938  0.23932886  0.84041131    -0.15020
C1481       C  0.59823321  0.29957737  0.81886025     0.35610
C1482       C  0.62630946  0.31048366  0.79904029    -0.26400
C1483       C  0.65418778  0.26236260  0.79977841    -0.15640
C1484       C  0.65381529  0.20221041  0.82138676     0.36690
N1485       N  0.68202167  0.15268380  0.82351152    -0.89890
H1486       H  0.62597071  0.14572230  0.85839553     0.17810
H1487       H  0.62612565  0.35600905  0.78181313     0.17800
N1488       N  0.57003541  0.34911196  0.81669137    -0.88920
H1489       H  0.67786978  0.11137761  0.84052511     0.35180
H1490       H  0.69761385  0.17372186  0.83567678     0.40270
H1491       H  0.55448662  0.32813327  0.80441603     0.39890
H1492       H  0.57422321  0.39047980  0.79975414     0.34780
C1493       C  0.90595198  0.21700514  0.65790401    -0.26950
C1494       C  0.90052370  0.26837454  0.96373575    -0.15020
C1495       C  0.86936689  0.29901362  0.95811678     0.35610
C1496       C  0.84486942  0.27781288  0.97989013    -0.26400
C1497       C  0.85026865  0.22664344  0.00751129    -0.15640
C1498       C  0.88144313  0.19584482  0.67972081     0.36690
N1499       N  0.88924584  0.14408951  0.70759535    -0.89890
H1500       H  0.92957779  0.19239389  0.66248416     0.17810
H1501       H  0.82125464  0.30242346  0.97525726     0.17800
N1502       N  0.86154084  0.35062906  0.93017640    -0.88920
H1503       H  0.87980898  0.10318693  0.70305038     0.35180
H1504       H  0.88006651  0.16210571  0.73291190     0.40270
H1505       H  0.87095766  0.33268148  0.90491006     0.39890
H1506       H  0.87069387  0.39185773  0.93483053     0.34780
C1507       C  0.64193010  0.29863066  0.97132253    -0.26950
C1508       C  0.65268850  0.25421511  0.00002785    -0.15020
C1509       C  0.63485169  0.20894254  0.68358050     0.35610
C1510       C  0.60676080  0.20677037  0.67027776    -0.26400
C1511       C  0.59618487  0.25007124  0.97456987    -0.15640
C1512       C  0.61367694  0.29691309  0.95825267     0.36690
N1513       N  0.60337861  0.34014128  0.92752250    -0.89890
H1514       H  0.65551503  0.33496441  0.95939098     0.17810
H1515       H  0.59317951  0.17043068  0.68220887     0.17800
N1516       N  0.64454085  0.16748730  0.71513827    -0.88920
H1517       H  0.61968049  0.36962189  0.91783403     0.35180
H1518       H  0.58299036  0.37297509  0.93662478     0.40270
H1519       H  0.66489698  0.13385882  0.70692688     0.39890
H1520       H  0.62797858  0.13882487  0.72515341     0.34780
C1521       C  0.52288783  0.03649053  0.97467651    -0.26950
C1522       C  0.99946170  0.03734770  0.95255271    -0.15020
C1523       C  0.97380016  0.00791617  0.96668279     0.35610
C1524       C  0.97267377  0.97857036  0.00230834    -0.26400
C1525       C  0.49659651  0.97677951  0.69127973    -0.15640
C1526       C  0.52156366  0.00874503  0.67775031     0.36690
N1527       N  0.54471079  0.01752709  0.70018867    -0.89890
H1528       H  0.54194978  0.06147364  0.96533379     0.17810
H1529       H  0.95332803  0.95457761  0.01188979     0.17800
N1530       N  0.94904045  0.00420807  0.94541532    -0.88920
H1531       H  0.56650072  0.99259707  0.68920150     0.35180
H1532       H  0.54074331  0.99786944  0.72681409     0.40270
H1533       H  0.95386474  0.01900567  0.91809135     0.39890
H1534       H  0.92896286  0.03665772  0.95578164     0.34780
C1535       C  0.97690395  0.46685521  0.65405423    -0.26950
C1536       C  0.49618343  0.46876084  0.95447358    -0.15020
C1537       C  0.51953893  0.50765775  0.95165193     0.35610
C1538       C  0.52272925  0.54262761  0.98149899    -0.26400
C1539       C  0.00285551  0.54253417  0.68043906    -0.15640
C1540       C  0.98015663  0.50198292  0.68378996     0.36690
N1541       N  0.96137376  0.49153339  0.71736548    -0.89890
H1542       H  0.95985939  0.43499526  0.65739890     0.17810
H1543       H  0.54017724  0.57349838  0.97849736     0.17800
N1544       N  0.53924171  0.51628162  0.91856093    -0.88920
H1545       H  0.93818188  0.51265001  0.71359754     0.35180
H1546       H  0.96748633  0.51423323  0.73874314     0.40270
H1547       H  0.53301081  0.49446227  0.89693078     0.39890
H1548       H  0.56207053  0.49304617  0.92300894     0.34780
C1549       C  0.90317277  0.70627308  0.81966110    -0.26950
C1550       C  0.90091128  0.76581748  0.79758333    -0.15020
C1551       C  0.87136101  0.80897797  0.79616510     0.35610
C1552       C  0.84505612  0.79193659  0.81717953    -0.26400
C1553       C  0.84732417  0.73242394  0.83927784    -0.15640
C1554       C  0.87686359  0.68922653  0.84066712     0.36690
N1555       N  0.88042164  0.62962545  0.86457515    -0.89890
H1556       H  0.92564121  0.67272549  0.82045613     0.17810
H1557       H  0.82258784  0.82548805  0.81639726     0.17800
N1558       N  0.86778778  0.86855444  0.77223683    -0.88920
H1559       H  0.90395661  0.60684084  0.86473032     0.35180
H1560       H  0.86976953  0.59573838  0.85381966     0.40270
H1561       H  0.87836899  0.90253090  0.78302060     0.39890
H1562       H  0.84424499  0.89123644  0.77201802     0.34780
C1563       C  0.63718630  0.70403185  0.84560015    -0.26910
C1564       C  0.65339944  0.75390821  0.83032623    -0.15020
C1565       C  0.64010046  0.79947416  0.80295227     0.35610
C1566       C  0.61127248  0.79466790  0.79171595    -0.26400
C1567       C  0.59507051  0.74479527  0.80699770    -0.15640
C1568       C  0.60837196  0.69920316  0.83434535     0.36690
N1569       N  0.59248977  0.64855988  0.85135415    -0.89890
H1570       H  0.64643105  0.66943948  0.86730180     0.17810
H1571       H  0.60201949  0.82921177  0.76999537     0.17800
N1572       N  0.65599267  0.85005344  0.78588679    -0.88920
H1573       H  0.58864457  0.65502977  0.87927467     0.35180
H1574       H  0.60720982  0.60209611  0.84756760     0.40270
H1575       H  0.64128308  0.89653756  0.78964687     0.39890
H1576       H  0.65981764  0.84350192  0.75797389     0.34780
C1577       C  0.86437170  0.68853450  0.99361296    -0.26950
C1578       C  0.84789598  0.73846002  0.97111194    -0.15020
C1579       C  0.85867179  0.79826729  0.96120450     0.35610
C1580       C  0.88515809  0.80819673  0.97551494    -0.26400
C1581       C  0.90151919  0.75845199  0.99821674    -0.15640
C1582       C  0.89106685  0.69811583  0.00761482     0.36690
N1583       N  0.90695239  0.64787680  0.03218914    -0.89890
H1584       H  0.85616288  0.64228443  0.00052190     0.17810
H1585       H  0.89336191  0.85444760  0.96858208     0.17800
N1586       N  0.84342258  0.84737095  0.93563873    -0.88920
H1587       H  0.89608609  0.60676711  0.70275628     0.35180
H1588       H  0.90449162  0.66805293  0.72429659     0.40270
H1589       H  0.84633586  0.82595939  0.91060239     0.39890
H1590       H  0.85424519  0.88857759  0.93155536     0.34780
C1591       C  0.62987784  0.81468733  0.64211693    -0.26950
C1592       C  0.65162593  0.75815173  0.96342416    -0.15020
C1593       C  0.64532177  0.69361618  0.97312913     0.35610
C1594       C  0.61807057  0.68646857  0.99458424    -0.26400
C1595       C  0.59652831  0.74218046  0.00687418    -0.15640
C1596       C  0.60252375  0.80768887  0.66356790     0.36690
N1597       N  0.58226510  0.86717865  0.67579653    -0.89890
H1598       H  0.63425878  0.86451841  0.63491270     0.17810
H1599       H  0.61379565  0.63654615  0.00175457     0.17800
N1600       N  0.66550080  0.63419094  0.96086006    -0.88920
H1601       H  0.57964175  0.86394190  0.70420741     0.35180
H1602       H  0.56070949  0.87174980  0.66571681     0.40270
H1603       H  0.68697310  0.62956877  0.97113618     0.39890
H1604       H  0.66820424  0.63769931  0.93244936     0.34780
C1605       C  0.72437790  0.02036056  0.01083535    -0.26950
C1606       C  0.75393865  0.03187206  0.68251055    -0.15020
C1607       C  0.77976051  0.00401085  0.65813895     0.35610
C1608       C  0.77526177  0.96607066  0.96329779    -0.26400
C1609       C  0.74573170  0.95471681  0.95824359    -0.15640
C1610       C  0.71991148  0.98238317  0.98266564     0.36690
N1611       N  0.68919650  0.97151388  0.97931274    -0.89890
H1612       H  0.70450412  0.04064591  0.02933623     0.17810
H1613       H  0.79510589  0.94602468  0.94471910     0.17800
N1614       N  0.81051965  0.01463343  0.66149591    -0.88920
H1615       H  0.67269622  0.99830107  0.99799788     0.35180
H1616       H  0.68925301  0.92100580  0.98637875     0.40270
H1617       H  0.81058650  0.06503222  0.65423783     0.39890
H1618       H  0.82702430  0.98748509  0.64296065     0.34780
C1619       C  0.72609448  0.46906204  0.66574583    -0.26950
C1620       C  0.75289309  0.45833002  0.68444567    -0.15020
C1621       C  0.78012592  0.47713089  0.99968442     0.35610
C1622       C  0.77959582  0.50857762  0.96436268    -0.26400
C1623       C  0.75252785  0.52108810  0.94610692    -0.15640
C1624       C  0.72603138  0.49785529  0.96299143     0.36690
N1625       N  0.69934923  0.50266428  0.94334765    -0.89890
H1626       H  0.70542059  0.45253700  0.67855832     0.17810
H1627       H  0.80028099  0.52512958  0.95154759     0.17800
N1628       N  0.80824331  0.46494416  0.01746205    -0.88920
H1629       H  0.68170569  0.48355310  0.62645893     0.35180
H1630       H  0.70628992  0.47290779  0.92120268     0.40270
H1631       H  0.80412460  0.49377064  0.70660545     0.39890
H1632       H  0.82629407  0.48094458  0.00044546     0.34780
loop_ 
_geom_bond_atom_site_label_1 
_geom_bond_atom_site_label_2 
_geom_bond_distance 
_geom_bond_site_symmetry_2 
_ccdc_geom_bond_type 
O1           Ni7   1.893       .  S
O1           C22   1.268       .  A
O2          Ni25   1.900       .  S
O2           C11   1.269       .  A
O3           Ni7   1.894       .  S
O3          Ni25   1.876       .  S
O3          Ni19   1.931       .  S
O3           H26   0.966       .  S
C4           O21   1.284       .  A
C4           O13   1.282       .  A
C4          C204   1.496       .  S
O5          Ni24   1.949       .  S
O5           C11   1.275       .  A
O6          Ni24   1.904       .  S
O6            C8   1.267       .  A
Ni7          O10   1.916       .  S
Ni7          O12   1.910       .  S
C8           O18   1.264       .  A
C8          C232   1.470       .  S
O9          Ni25   1.900       .  S
O9           C15   1.276       .  A
O10          C15   1.277       .  A
C11         C249   1.505       .  S
O12          C14   1.272       .  A
O13         Ni24   1.931       .  S
C14          O20   1.277       .  A
C14         C193   1.486       .  S
C15         C218   1.457       .  S
H16          O17   0.966       .  S
O17         Ni25   1.917       .  S
O17         Ni19   1.905       .  S
O17         Ni24   1.909       .  S
O18         Ni19   1.904       .  S
Ni19         O23   1.929       .  S
Ni19         O21   1.937       .  S
O20         Ni25   1.939       .  S
C22          O23   1.268       .  A
C22         C263   1.493       .  S
O27         Ni33   1.891       .  S
O27         C864   1.271   1_455  A
O28         Ni51   1.898       .  S
O28          C37   1.267   1_455  A
O29         Ni33   1.895       .  S
O29         Ni51   1.875       .  S
O29        Ni861   1.930   1_455  S
O29          H52   0.967       .  S
C30          O47   1.280       .  A
C30          O39   1.284       .  A
C30         C106   1.491       .  S
O31         Ni50   1.952       .  S
O31         C853   1.277       .  A
O32         Ni50   1.906       .  S
O32          C34   1.265       .  A
Ni33         O36   1.905       .  S
Ni33         O38   1.922       .  S
C34          O44   1.264       .  A
C34         C134   1.475       .  S
O35         Ni51   1.904       .  S
O35          C41   1.276       .  A
O36          C41   1.274       .  A
C37         O847   1.277       .  A
C37         C176   1.492       .  S
O38          C40   1.277       .  A
O39         Ni50   1.939       .  S
C40          O46   1.277       .  A
C40         C120   1.497       .  S
C41         C151   1.449       .  S
H42          O43   0.965       .  S
O43         Ni45   1.902       .  S
O43         Ni50   1.913       .  S
O43        Ni867   1.921       .  S
O44         Ni45   1.901       .  S
Ni45         O49   1.917       .  S
Ni45         O47   1.927       .  S
Ni45        O845   1.930       .  S
O46         Ni51   1.939       .  S
C48          O49   1.264       .  A
C48         O843   1.270       .  A
C48         C162   1.490       .  S
Ni51        O859   1.921   1_455  S
O53         Ni59   1.950       .  S
O53         C890   1.276       .  A
O54         Ni77   1.925       .  S
O54          C63   1.266   1_455  A
O55         Ni59   1.909       .  S
O55         Ni77   1.906       .  S
O55        Ni887   1.915   1_455  S
O55          H78   0.966   1_455  S
C56          O73   1.274       .  A
C56          O65   1.277       .  A
C56         C221   1.457       .  S
O57         Ni76   1.893       .  S
O57         C879   1.268       .  A
O58         Ni76   1.909       .  S
O58          C60   1.272       .  A
Ni59         O62   1.930       .  S
Ni59         O64   1.903       .  S
C60          O70   1.277       .  A
C60         C190   1.487       .  S
O61         Ni77   1.937       .  S
O61          C67   1.283       .  A
O62          C67   1.282       .  A
C63         O873   1.268       .  A
C63         C165   1.490       .  S
O64          C66   1.267       .  A
O65        Ni348   1.917       .  S
C66          O72   1.262       .  A
C66         C779   1.469       .  S
C67         C207   1.495       .  S
H68         O341   0.967       .  S
O69         Ni71   1.878       .  S
O69         Ni76   1.894       .  S
O69        Ni893   1.932       .  S
O69         H612   0.967       .  S
O70         Ni71   1.938       .  S
Ni71         O75   1.899       .  S
Ni71        O617   1.897       .  S
Ni71        O871   1.914       .  S
O72         Ni77   1.900       .  S
O73        Ni343   1.897       .  S
C74          O75   1.267       .  A
C74         O869   1.276       .  A
C74         C179   1.493       .  S
Ni76        O609   1.916       .  S
Ni77        O885   1.932   1_455  S
O79         Ni85   1.948       .  S
O79         C100   1.277       .  A
O80        Ni103   1.918       .  S
O80          C89   1.264       .  A
O81         Ni85   1.912       .  S
O81        Ni103   1.902       .  S
O81         Ni97   1.924       .  S
O81         H104   0.966       .  S
C82          O99   1.278       .  A
C82          O91   1.274       .  A
C82         C148   1.449       .  S
O83        Ni102   1.890       .  S
O83          C89   1.271       .  A
O84        Ni102   1.924       .  S
O84          C86   1.278       .  A
Ni85         O88   1.938       .  S
Ni85         O90   1.909       .  S
C86          O96   1.277       .  A
C86         C123   1.496       .  S
O87        Ni103   1.929       .  S
O87          C93   1.279       .  A
O88          C93   1.283       .  A
C89         C260   1.494       .  S
O90          C92   1.266       .  A
O91        Ni374   1.904       .  S
C92          O98   1.265       .  A
C92         C681   1.476       .  S
C93         C109   1.492       .  S
H94         O367   0.967       .  S
O95        Ni103   1.932       .  S
O95         Ni97   1.873       .  S
O95        Ni102   1.893       .  S
O95         H638   0.967       .  S
O96         Ni97   1.939       .  S
Ni97        O101   1.900       .  S
Ni97        O643   1.907       .  S
O98        Ni103   1.900       .  S
O99        Ni369   1.907       .  S
C100        O101   1.270       .  A
C100        C246   1.505       .  S
Ni102       O635   1.904       .  S
C105        C106   1.411       .  A
C105        C110   1.403       .  A
C105        H112   1.084       .  S
C106        C107   1.416       .  A
C107        C108   1.406       .  A
C107        N114   1.437       .  S
C108        C109   1.410       .  A
C108        H113   1.084       .  S
C109        C110   1.412       .  A
C110        N111   1.432       .  S
N111        H115   1.044       .  S
N111        H116   1.046       .  S
N114        H117   1.042       .  S
N114        H118   1.045       .  S
C119        C120   1.408       .  A
C119        C124   1.412       .  A
C119        H126   1.083       .  S
C120        C121   1.414       .  A
C121        C122   1.412       .  A
C121        N128   1.438       .  S
C122        C123   1.408       .  A
C122        H127   1.083       .  S
C123        C124   1.413       .  A
C124        N125   1.438       .  S
N125        H129   1.046       .  S
N125        H130   1.046       .  S
N128        H131   1.046       .  S
N128        H132   1.046       .  S
C133        C138   1.393   1_556  A
C133        C678   1.405       .  A
C133        H140   1.084       .  S
C134        C135   1.417       .  A
C134        C405   1.405       .  A
C135        C136   1.391       .  A
C135        N142   1.433       .  S
C136        C137   1.405       .  A
C136        H141   1.084       .  S
C137        C364   1.475       .  S
C137        C410   1.418       .  A
C138        C681   1.418       .  A
C138        N139   1.433       .  S
N139        H143   1.045       .  S
N139        H144   1.045       .  S
N142        H145   1.045       .  S
N142        H146   1.045       .  S
C147        C148   1.399       .  A
C147        C152   1.397       .  A
C147        H154   1.084       .  S
C148        C421   1.408       .  A
C149        C150   1.396       .  A
C149        C692   1.408       .  A
C149        N156   1.438       .  S
C150        C695   1.399   1_554  A
C150        H155   1.084       .  S
C151        C152   1.407       .  A
C151        C422   1.399       .  A
C152        N153   1.438       .  S
N153        H157   1.046       .  S
N153        H158   1.045       .  S
N156        H159   1.043       .  S
N156        H160   1.046       .  S
C161        C978   1.409   1_455  A
C161        C438   1.405       .  A
C161        H168   1.081       .  S
C162        C163   1.417       .  A
C162        C977   1.409       .  A
C163        C164   1.403   1_545  A
C163        N170   1.438       .  S
C164       C1253   1.408       .  A
C164        H169   1.081       .  S
C165        C166   1.416   1_665  A
C165       C1524   1.408       .  A
C166        C705   1.405   1_554  A
C166        N167   1.439       .  S
N167        H171   1.044   1_545  S
N167        H172   1.043   1_545  S
N170        H173   1.043       .  S
N170        H174   1.046       .  S
C175        C180   1.406   1_556  A
C175       C1536   1.408       .  A
C175        H182   1.084       .  S
C176        C177   1.418   1_655  A
C176       C1263   1.408       .  A
C177        C178   1.407       .  A
C177        N184   1.438       .  S
C178       C1267   1.409       .  A
C178        H183   1.084       .  S
C179        C180   1.417       .  A
C179       C1538   1.409   1_554  A
C180        N181   1.438       .  S
N181        H185   1.045       .  S
N181        H186   1.042       .  S
N184        H187   1.042       .  S
N184        H188   1.045       .  S
C189        C190   1.402       .  A
C189        C194   1.408       .  A
C189        H196   1.084       .  S
C190        C191   1.418       .  A
C191        C192   1.408       .  A
C191        N198   1.438       .  S
C192        C193   1.402       .  A
C192        H197   1.084       .  S
C193        C194   1.418       .  A
C194        N195   1.438       .  S
N195        H199   1.046       .  S
N195        H200   1.045       .  S
N198        H201   1.045       .  S
N198        H202   1.046       .  S
C203        C204   1.409       .  A
C203        C208   1.408       .  A
C203        H210   1.084       .  S
C204        C205   1.412       .  A
C205        C206   1.408       .  A
C205        N212   1.432       .  S
C206        C207   1.409       .  A
C206        H211   1.084       .  S
C207        C208   1.412       .  A
C208        N209   1.432       .  S
N209        H213   1.046       .  S
N209        H214   1.046       .  S
N212        H215   1.046       .  S
N212        H216   1.046       .  S
C217        C218   1.399       .  A
C217        C222   1.397       .  A
C217        H224   1.084       .  S
C218        C219   1.410       .  A
C219        C220   1.397       .  A
C219        N226   1.437       .  S
C220        C221   1.399       .  A
C220        H225   1.084       .  S
C221        C222   1.411       .  A
C222        N223   1.438       .  S
N223        H499   1.046       .  S
N223        H500   1.045       .  S
N226        H229   1.045       .  S
N226        H230   1.046       .  S
H227        N767   1.046       .  S
H228        N767   1.045       .  S
C231        C236   1.391       .  A
C231        C776   1.399       .  A
C231        H238   1.084       .  S
C232        C233   1.416       .  A
C232        C503   1.400       .  A
C233        C234   1.388       .  A
C233        N240   1.427       .  S
C234        C235   1.398       .  A
C234        H239   1.084       .  S
C235        C338   1.469       .  S
C235        C508   1.417       .  A
C236        C779   1.417   1_556  A
C236        N237   1.429   1_556  S
N237        H241   1.045       .  S
N237        H242   1.045   1_554  S
N240        H243   1.045       .  S
N240        H244   1.045       .  S
C245        C250   1.412   1_545  A
C245        C518   1.406       .  A
C245        H252   1.081       .  S
C246        C247   1.420   1_554  A
C246        C789   1.407       .  A
C247        C792   1.410   1_545  A
C247        N254   1.438       .  S
C248        C249   1.405       .  A
C248        C519   1.411   1_565  A
C248        H253   1.080       .  S
C249        C250   1.420       .  A
C250        N251   1.438       .  S
N251        H255   1.046       .  S
N251        H256   1.046       .  S
N254        H257   1.046       .  S
N254        H258   1.045   1_545  S
C259        C260   1.408   1_556  A
C259        C808   1.410       .  A
C259        H266   1.082   1_556  S
C260        C805   1.415   1_554  A
C261        C262   1.409       .  A
C261        C532   1.415       .  A
C261        N268   1.438       .  S
C262        C263   1.407       .  A
C262        H267   1.082       .  S
C263        C264   1.411       .  A
C264        C531   1.410       .  A
C264        N265   1.437       .  S
N265        H270   1.045       .  S
N265        H541   1.046       .  S
N268        H272   1.046       .  S
N268        H543   1.045       .  S
H269        N809   1.046       .  S
H271        N812   1.045       .  S
O273       Ni279   1.893       .  S
O273        C294   1.268       .  A
O274       Ni297   1.900       .  S
O274        C283   1.269       .  A
O275       Ni279   1.894       .  S
O275       Ni297   1.876       .  S
O275       Ni291   1.931       .  S
O275        H298   0.966       .  S
C276        O293   1.284       .  A
C276        O285   1.282       .  A
C276        C476   1.496       .  S
O277       Ni296   1.949       .  S
O277        C283   1.275       .  A
O278       Ni296   1.904       .  S
O278        C280   1.267       .  A
Ni279       O282   1.916       .  S
Ni279       O284   1.910       .  S
C280        O290   1.264       .  A
C280        C504   1.470       .  S
O281       Ni297   1.900       .  S
O281        C287   1.276       .  A
O282        C287   1.277       .  A
C283        C521   1.505       .  S
O284        C286   1.272       .  A
O285       Ni296   1.931       .  S
C286        O292   1.277       .  A
C286        C465   1.487       .  S
C287        C490   1.457       .  S
H288        O289   0.966       .  S
O289       Ni297   1.917       .  S
O289       Ni291   1.905       .  S
O289       Ni296   1.909       .  S
O290       Ni291   1.904       .  S
Ni291       O295   1.930       .  S
Ni291       O293   1.938       .  S
O292       Ni297   1.938       .  S
C294        O295   1.268       .  A
C294        C535   1.493       .  S
O299       Ni305   1.891       .  S
O299       C1136   1.270   1_455  A
O300       Ni323   1.898       .  S
O300        C309   1.267   1_455  A
O301       Ni305   1.895       .  S
O301       Ni323   1.875       .  S
O301      Ni1133   1.930   1_455  S
O301        H324   0.967       .  S
C302        O319   1.280       .  A
C302        O311   1.284       .  A
C302        C378   1.491       .  S
O303       Ni322   1.952       .  S
O303       C1125   1.277       .  A
O304       Ni322   1.906       .  S
O304        C306   1.265       .  A
Ni305       O308   1.905       .  S
Ni305       O310   1.922       .  S
C306        O316   1.264       .  A
C306        C406   1.475       .  S
O307       Ni323   1.904       .  S
O307        C313   1.276       .  A
O308        C313   1.274       .  A
C309       O1119   1.277       .  A
C309        C448   1.492       .  S
O310        C312   1.277       .  A
O311       Ni322   1.939       .  S
C312        O318   1.277       .  A
C312        C392   1.497       .  S
C313        C423   1.448       .  S
H314        O315   0.965       .  S
O315      Ni1139   1.921       .  S
O315       Ni317   1.902       .  S
O315       Ni322   1.913       .  S
O316       Ni317   1.901       .  S
Ni317       O321   1.917       .  S
Ni317       O319   1.928       .  S
Ni317      O1117   1.930       .  S
O318       Ni323   1.940       .  S
C320       O1115   1.270       .  A
C320        O321   1.264       .  A
C320        C434   1.490       .  S
Ni323      O1131   1.921   1_455  S
O325       Ni331   1.950       .  S
O325       C1162   1.276       .  A
O326       Ni349   1.925       .  S
O326        C335   1.266   1_455  A
O327       Ni331   1.909       .  S
O327       Ni349   1.905       .  S
O327      Ni1159   1.915   1_455  S
O327        H350   0.966   1_455  S
C328        O345   1.274       .  A
C328        O337   1.277       .  A
C328        C493   1.457       .  S
O329       Ni348   1.894       .  S
O329       C1151   1.268       .  A
O330       Ni348   1.909       .  S
O330        C332   1.272       .  A
Ni331       O334   1.930       .  S
Ni331       O336   1.903       .  S
C332        O342   1.277       .  A
C332        C462   1.487       .  S
O333       Ni349   1.938       .  S
O333        C339   1.284       .  A
O334        C339   1.282       .  A
C335       O1145   1.269       .  A
C335        C437   1.490       .  S
O336        C338   1.267       .  A
O337       Ni620   1.917       .  S
C338        O344   1.262       .  A
C339        C479   1.495       .  S
H340        O613   0.967       .  S
O341      Ni1165   1.932       .  S
O341       Ni343   1.877       .  S
O341       Ni348   1.894       .  S
O342       Ni343   1.939       .  S
Ni343       O347   1.901       .  S
Ni343      O1143   1.915       .  S
O344       Ni349   1.901       .  S
O345       Ni615   1.897       .  S
C346       O1141   1.276       .  A
C346        O347   1.267       .  A
C346        C451   1.492       .  S
Ni349      O1157   1.932   1_455  S
O351       Ni357   1.948       .  S
O351        C372   1.277       .  A
O352       Ni375   1.918       .  S
O352        C361   1.264       .  A
O353       Ni357   1.912       .  S
O353       Ni375   1.902       .  S
O353       Ni369   1.924       .  S
O353        H376   0.966       .  S
C354        O371   1.277       .  A
C354        O363   1.274       .  A
C354        C420   1.448       .  S
O355       Ni374   1.890       .  S
O355        C361   1.271       .  A
O356       Ni374   1.924       .  S
O356        C358   1.278       .  A
Ni357       O360   1.939       .  S
Ni357       O362   1.909       .  S
C358        O368   1.278       .  A
C358        C395   1.496       .  S
O359       Ni375   1.929       .  S
O359        C365   1.279       .  A
O360        C365   1.283       .  A
C361        C532   1.494       .  S
O362        C364   1.266       .  A
O363       Ni646   1.903       .  S
C364        O370   1.265       .  A
C365        C381   1.492       .  S
H366        O639   0.967       .  S
O367       Ni375   1.932       .  S
O367       Ni369   1.873       .  S
O367       Ni374   1.893       .  S
O368       Ni369   1.939       .  S
Ni369       O373   1.901       .  S
O370       Ni375   1.900       .  S
O371       Ni641   1.907       .  S
C372        O373   1.270       .  A
C372        C518   1.505       .  S
C377        C378   1.411       .  A
C377        C382   1.404       .  A
C377        H384   1.084       .  S
C378        C379   1.416       .  A
C379        C380   1.406       .  A
C379        N386   1.437       .  S
C380        C381   1.410       .  A
C380        H385   1.084       .  S
C381        C382   1.412       .  A
C382        N383   1.432       .  S
N383        H387   1.044       .  S
N383        H388   1.046       .  S
N386        H389   1.042       .  S
N386        H390   1.045       .  S
C391        C392   1.409       .  A
C391        C396   1.412       .  A
C391        H398   1.083       .  S
C392        C393   1.414       .  A
C393        C394   1.412       .  A
C393        N400   1.438       .  S
C394        C395   1.408       .  A
C394        H399   1.083       .  S
C395        C396   1.413       .  A
C396        N397   1.438       .  S
N397        H401   1.046       .  S
N397        H402   1.046       .  S
N400        H403   1.046       .  S
N400        H404   1.046       .  S
C405        C410   1.392       .  A
C405        H412   1.084       .  S
C406        C677   1.405       .  A
C406        C407   1.417       .  A
C407        C408   1.391       .  A
C407        N414   1.433       .  S
C408        C409   1.405       .  A
C408        H413   1.084       .  S
C409        C636   1.475       .  S
C409        C682   1.418       .  A
C410        N411   1.433       .  S
N411        H415   1.045       .  S
N411        H416   1.045       .  S
N414        H417   1.045       .  S
N414        H418   1.045       .  S
C419        C420   1.399       .  A
C419        C424   1.397       .  A
C419        H426   1.084       .  S
C420        C693   1.408       .  A
C421        C422   1.396       .  A
C421        N428   1.438       .  S
C422        H427   1.084       .  S
C423        C694   1.399       .  A
C423        C424   1.407       .  A
C424        N425   1.438       .  S
N425        H429   1.046       .  S
N425        H430   1.045       .  S
N428        H431   1.043       .  S
N428        H432   1.046       .  S
C433       C1250   1.409   1_455  A
C433        C710   1.405       .  A
C433        H440   1.081       .  S
C434       C1249   1.409       .  A
C434        C435   1.417       .  A
C435        C436   1.403   1_545  A
C435        N442   1.438       .  S
C436       C1525   1.408       .  A
C436        H441   1.081       .  S
C437        C980   1.408       .  A
C437        C438   1.416   1_665  A
C438        N439   1.439       .  S
N439        H443   1.044   1_545  S
N439        H444   1.043   1_545  S
N442        H445   1.043       .  S
N442        H446   1.046       .  S
C447        C992   1.409       .  A
C447        C452   1.406       .  A
C447        H454   1.084       .  S
C448       C1535   1.409       .  A
C448        C449   1.418   1_655  A
C449        C450   1.407       .  A
C449        N456   1.438       .  S
C450       C1539   1.409       .  A
C450        H455   1.084       .  S
C451        C994   1.409       .  A
C451        C452   1.417       .  A
C452        N453   1.438       .  S
N453        H457   1.044       .  S
N453        H458   1.042       .  S
N456        H459   1.042       .  S
N456        H460   1.045       .  S
C461        C462   1.402       .  A
C461        C466   1.408       .  A
C461        H468   1.084       .  S
C462        C463   1.418       .  A
C463        C464   1.408       .  A
C463        N470   1.438       .  S
C464        C465   1.402       .  A
C464        H469   1.084       .  S
C465        C466   1.418       .  A
C466        N467   1.438       .  S
N467        H471   1.046       .  S
N467        H472   1.045       .  S
N470        H473   1.045       .  S
N470        H474   1.046       .  S
C475        C476   1.409       .  A
C475        C480   1.408       .  A
C475        H482   1.084       .  S
C476        C477   1.412       .  A
C477        C478   1.408       .  A
C477        N484   1.432       .  S
C478        C479   1.409       .  A
C478        H483   1.084       .  S
C479        C480   1.412       .  A
C480        N481   1.432       .  S
N481        H485   1.046       .  S
N481        H486   1.046       .  S
N484        H487   1.046       .  S
N484        H488   1.046       .  S
C489        C490   1.399       .  A
C489        C494   1.397       .  A
C489        H496   1.084       .  S
C490        C491   1.410       .  A
C491        C492   1.397       .  A
C491        N498   1.437       .  S
C492        C493   1.399       .  A
C492        H497   1.084       .  S
C493        C494   1.411       .  A
C494        N495   1.438       .  S
N495        H771   1.046       .  S
N495        H772   1.045       .  S
N498        H501   1.045       .  S
N498        H502   1.046       .  S
C503        C508   1.391       .  A
C503        H510   1.084       .  S
C504        C775   1.399       .  A
C504        C505   1.416       .  A
C505        C506   1.388       .  A
C505        N512   1.427       .  S
C506        C507   1.398       .  A
C506        H511   1.084       .  S
C507        C610   1.469       .  S
C507        C780   1.417       .  A
C508        N509   1.429       .  S
N509        H513   1.045       .  S
N509        H514   1.045       .  S
N512        H515   1.045       .  S
N512        H516   1.045       .  S
C517        C790   1.406       .  A
C517        C522   1.412   1_545  A
C517        H524   1.081       .  S
C518        C519   1.420       .  A
C519        N526   1.438       .  S
C520        C791   1.411   1_565  A
C520        C521   1.405       .  A
C520        H525   1.080       .  S
C521        C522   1.420       .  A
C522        N523   1.438       .  S
N523        H527   1.046       .  S
N523        H528   1.046       .  S
N526        H529   1.046       .  S
N526        H530   1.046   1_545  S
C531        C532   1.408       .  A
C531        H538   1.082       .  S
C533        C804   1.415       .  A
C533        C534   1.409       .  A
C533        N540   1.438       .  S
C534        C535   1.407       .  A
C534        H539   1.082       .  S
C535        C536   1.411       .  A
C536        C803   1.410       .  A
C536        N537   1.437       .  S
N537        H813   1.046       .  S
N537        H542   1.045       .  S
N540        H815   1.045       .  S
N540        H544   1.046       .  S
O545       Ni551   1.892       .  S
O545        C566   1.268       .  A
O546       Ni569   1.901       .  S
O546        C555   1.269       .  A
O547       Ni551   1.894       .  S
O547       Ni569   1.877       .  S
O547       Ni563   1.932       .  S
O547        H570   0.966       .  S
C548        O565   1.283       .  A
C548        O557   1.282       .  A
C548        C748   1.496       .  S
O549       Ni568   1.948       .  S
O549        C555   1.275       .  A
O550       Ni568   1.904       .  S
O550        C552   1.267       .  A
Ni551       O554   1.913       .  S
Ni551       O556   1.911       .  S
C552        O562   1.264       .  A
C552        C776   1.470       .  S
O553       Ni569   1.901       .  S
O553        C559   1.276       .  A
O554        C559   1.276       .  A
C555        C793   1.505       .  S
O556        C558   1.273       .  A
O557       Ni568   1.931       .  S
C558        O564   1.277       .  A
C558        C737   1.487       .  S
C559        C762   1.453       .  S
H560        O561   0.966       .  S
O561       Ni569   1.918       .  S
O561       Ni563   1.905       .  S
O561       Ni568   1.909       .  S
O562       Ni563   1.904       .  S
Ni563       O567   1.929       .  S
Ni563       O565   1.937       .  S
O564       Ni569   1.938       .  S
C566        O567   1.267       .  A
C566        C807   1.494       .  S
O571       Ni577   1.891       .  S
O571       C1408   1.270   1_455  A
O572       Ni595   1.898       .  S
O572        C581   1.267   1_455  A
O573       Ni577   1.895       .  S
O573       Ni595   1.875       .  S
O573      Ni1405   1.930   1_455  S
O573        H596   0.967       .  S
C574        O591   1.280       .  A
C574        O583   1.284       .  A
C574        C650   1.491       .  S
O575       Ni594   1.952       .  S
O575       C1397   1.277       .  A
O576       Ni594   1.906       .  S
O576        C578   1.265       .  A
Ni577       O580   1.905       .  S
Ni577       O582   1.922       .  S
C578        O588   1.265       .  A
C578        C678   1.476       .  S
O579       Ni595   1.904       .  S
O579        C585   1.276       .  A
O580        C585   1.274       .  A
C581       O1391   1.277       .  A
C581        C720   1.492       .  S
O582        C584   1.277       .  A
O583       Ni594   1.939       .  S
C584        O590   1.277       .  A
C584        C664   1.497       .  S
C585        C695   1.448       .  S
H586        O587   0.965       .  S
O587      Ni1411   1.921       .  S
O587       Ni589   1.902       .  S
O587       Ni594   1.914       .  S
O588       Ni589   1.901       .  S
Ni589       O593   1.916       .  S
Ni589       O591   1.927       .  S
Ni589      O1389   1.930       .  S
O590       Ni595   1.940       .  S
C592       O1387   1.270       .  A
C592        O593   1.264       .  A
C592        C706   1.490       .  S
Ni595      O1403   1.921   1_455  S
O597       Ni603   1.950       .  S
O597       C1434   1.276       .  A
O598       Ni621   1.925       .  S
O598        C607   1.266   1_455  A
O599       Ni603   1.909       .  S
O599       Ni621   1.906       .  S
O599      Ni1431   1.915   1_455  S
O599        H622   0.966   1_455  S
C600        O617   1.273       .  A
C600        O609   1.276       .  A
C600        C765   1.453   1_554  S
O601       Ni620   1.894       .  S
O601       C1423   1.269       .  A
O602       Ni620   1.909       .  S
O602        C604   1.272       .  A
Ni603       O606   1.930       .  S
Ni603       O608   1.903       .  S
C604        O614   1.277       .  A
C604        C734   1.487       .  S
O605       Ni621   1.938       .  S
O605        C611   1.283       .  A
O606        C611   1.282       .  A
C607       O1417   1.268       .  A
C607        C709   1.490       .  S
O608        C610   1.267       .  A
C610        O616   1.262       .  A
C611        C751   1.495       .  S
O613      Ni1437   1.932       .  S
O613       Ni615   1.877       .  S
O613       Ni620   1.894       .  S
O614       Ni615   1.939       .  S
Ni615       O619   1.901       .  S
Ni615      O1415   1.915       .  S
O616       Ni621   1.900       .  S
C618       O1413   1.276       .  A
C618        O619   1.267       .  A
C618        C723   1.492       .  S
Ni621      O1429   1.932   1_455  S
O623       Ni629   1.948       .  S
O623        C644   1.277       .  A
O624       Ni647   1.918       .  S
O624        C633   1.264       .  A
O625       Ni629   1.912       .  S
O625       Ni647   1.902       .  S
O625       Ni641   1.924       .  S
O625        H648   0.966       .  S
C626        O643   1.277       .  A
C626        O635   1.274       .  A
C626        C692   1.448       .  S
O627       Ni646   1.890       .  S
O627        C633   1.271       .  A
O628       Ni646   1.924       .  S
O628        C630   1.278       .  A
Ni629       O632   1.939       .  S
Ni629       O634   1.909       .  S
C630        O640   1.278       .  A
C630        C667   1.496       .  S
O631       Ni647   1.928       .  S
O631        C637   1.279       .  A
O632        C637   1.283       .  A
C633        C804   1.494       .  S
O634        C636   1.266       .  A
C636        O642   1.265       .  A
C637        C653   1.492       .  S
O639       Ni647   1.932       .  S
O639       Ni641   1.873       .  S
O639       Ni646   1.893       .  S
O640       Ni641   1.939       .  S
Ni641       O645   1.900       .  S
O642       Ni647   1.900       .  S
C644        O645   1.270       .  A
C644        C790   1.505       .  S
C649        C650   1.411       .  A
C649        C654   1.403       .  A
C649        H656   1.084       .  S
C650        C651   1.416       .  A
C651        C652   1.406       .  A
C651        N658   1.437       .  S
C652        C653   1.410       .  A
C652        H657   1.084       .  S
C653        C654   1.412       .  A
C654        N655   1.432       .  S
N655        H659   1.044       .  S
N655        H660   1.046       .  S
N658        H661   1.042       .  S
N658        H662   1.045       .  S
C663        C664   1.409       .  A
C663        C668   1.412       .  A
C663        H670   1.083       .  S
C664        C665   1.414       .  A
C665        C666   1.412       .  A
C665        N672   1.438       .  S
C666        C667   1.408       .  A
C666        H671   1.083       .  S
C667        C668   1.413       .  A
C668        N669   1.438       .  S
N669        H673   1.046       .  S
N669        H674   1.046       .  S
N672        H675   1.046       .  S
N672        H676   1.046       .  S
C677        C682   1.392       .  A
C677        H684   1.084       .  S
C678        C679   1.417       .  A
C679        C680   1.392       .  A
C679        N686   1.433       .  S
C680        C681   1.405   1_556  A
C680        H685   1.084       .  S
C682        N683   1.433       .  S
N683        H687   1.045       .  S
N683        H688   1.045       .  S
N686        H689   1.045       .  S
N686        H690   1.045       .  S
C691        C692   1.399   1_556  A
C691        C696   1.397       .  A
C691        H698   1.084       .  S
C693        C694   1.396       .  A
C693        N700   1.438       .  S
C694        H699   1.084       .  S
C695        C696   1.407       .  A
C696        N697   1.438       .  S
N697        H701   1.046       .  S
N697        H702   1.045       .  S
N700        H703   1.043       .  S
N700        H704   1.046       .  S
C705       C1522   1.409   1_455  A
C705        H712   1.081       .  S
C706       C1521   1.409       .  A
C706        C707   1.417       .  A
C707        C708   1.403   1_546  A
C707        N714   1.438       .  S
C708        C981   1.408       .  A
C708        H713   1.081       .  S
C709       C1252   1.408       .  A
C709        C710   1.416   1_665  A
C710        N711   1.439       .  S
N711        H715   1.044   1_545  S
N711        H716   1.043   1_545  S
N714        H717   1.043       .  S
N714        H718   1.046       .  S
C719       C1264   1.409       .  A
C719        C724   1.406       .  A
C719        H726   1.084       .  S
C720        C991   1.409       .  A
C720        C721   1.418   1_655  A
C721        C722   1.407       .  A
C721        N728   1.438       .  S
C722        C995   1.409   1_556  A
C722        H727   1.084       .  S
C723       C1266   1.409       .  A
C723        C724   1.417       .  A
C724        N725   1.438       .  S
N725        H729   1.044       .  S
N725        H730   1.042       .  S
N728        H731   1.042       .  S
N728        H732   1.045       .  S
C733        C734   1.402       .  A
C733        C738   1.408       .  A
C733        H740   1.084       .  S
C734        C735   1.418       .  A
C735        C736   1.408       .  A
C735        N742   1.438       .  S
C736        C737   1.402       .  A
C736        H741   1.084       .  S
C737        C738   1.418       .  A
C738        N739   1.438       .  S
N739        H743   1.046       .  S
N739        H744   1.045       .  S
N742        H745   1.045       .  S
N742        H746   1.046       .  S
C747        C748   1.409       .  A
C747        C752   1.408       .  A
C747        H754   1.084       .  S
C748        C749   1.412       .  A
C749        C750   1.408       .  A
C749        N756   1.432       .  S
C750        C751   1.409       .  A
C750        H755   1.084       .  S
C751        C752   1.412       .  A
C752        N753   1.432       .  S
N753        H757   1.046       .  S
N753        H758   1.046       .  S
N756        H759   1.046       .  S
N756        H760   1.046       .  S
C761        C762   1.398       .  A
C761        C766   1.398   1_556  A
C761        H768   1.084   1_556  S
C762        C763   1.407       .  A
C763        C764   1.394       .  A
C763        N770   1.432       .  S
C764        C765   1.397       .  A
C764        H769   1.084       .  S
C765        C766   1.411   1_556  A
C766        N767   1.438       .  S
N770        H773   1.046       .  S
N770        H774   1.044       .  S
C775        C780   1.391       .  A
C775        H782   1.084       .  S
C776        C777   1.416       .  A
C777        C778   1.388       .  A
C777        N784   1.427       .  S
C778        C779   1.398   1_556  A
C778        H783   1.084   1_556  S
C780        N781   1.429       .  S
N781        H785   1.045       .  S
N781        H786   1.045       .  S
N784        H787   1.045       .  S
N784        H788   1.045       .  S
C789        C794   1.412   1_544  A
C789        H796   1.081       .  S
C790        C791   1.420       .  A
C791        N798   1.438       .  S
C792        C793   1.405       .  A
C792        H797   1.079       .  S
C793        C794   1.420       .  A
C794        N795   1.438       .  S
N795        H799   1.046   1_565  S
N795        H800   1.046       .  S
N798        H801   1.046       .  S
N798        H802   1.046   1_545  S
C803        C804   1.408       .  A
C803        H810   1.082       .  S
C805        C806   1.410       .  A
C805        N812   1.438   1_556  S
C806        C807   1.407       .  A
C806        H811   1.082       .  S
C807        C808   1.411       .  A
C808        N809   1.437       .  S
N809        H814   1.045       .  S
N812        H816   1.046       .  S
O817       Ni823   1.893       .  S
O817        C838   1.268       .  A
O818       Ni841   1.900       .  S
O818        C827   1.269       .  A
O819       Ni823   1.894       .  S
O819       Ni841   1.876       .  S
O819       Ni835   1.931       .  S
O819        H842   0.966       .  S
C820        O837   1.284       .  A
C820        O829   1.282       .  A
C820       C1020   1.496       .  S
O821       Ni840   1.949       .  S
O821        C827   1.275       .  A
O822       Ni840   1.904       .  S
O822        C824   1.267       .  A
Ni823       O826   1.916       .  S
Ni823       O828   1.910       .  S
C824        O834   1.264       .  A
C824       C1048   1.470       .  S
O825       Ni841   1.900       .  S
O825        C831   1.276       .  A
O826        C831   1.277       .  A
C827       C1065   1.505       .  S
O828        C830   1.272       .  A
O829       Ni840   1.931       .  S
C830        O836   1.277       .  A
C830       C1009   1.487       .  S
C831       C1034   1.457       .  S
H832        O833   0.966       .  S
O833       Ni841   1.917       .  S
O833       Ni835   1.905       .  S
O833       Ni840   1.909       .  S
O834       Ni835   1.904       .  S
Ni835       O839   1.930       .  S
Ni835       O837   1.938       .  S
O836       Ni841   1.938       .  S
C838        O839   1.268       .  A
C838       C1079   1.494       .  S
O843       Ni849   1.891       .  S
O844       Ni867   1.898       .  S
O844        C853   1.267       .  A
O845       Ni849   1.895       .  S
O845       Ni867   1.875       .  S
O845        H868   0.967       .  S
C846        O863   1.280       .  A
C846        O855   1.284       .  A
C846        C922   1.491       .  S
O847       Ni866   1.952       .  S
O848       Ni866   1.906       .  S
O848        C850   1.265       .  A
Ni849       O852   1.905       .  S
Ni849       O854   1.922       .  S
C850        O860   1.264       .  A
C850        C950   1.475       .  S
O851       Ni867   1.904       .  S
O851        C857   1.276       .  A
O852        C857   1.274       .  A
C853        C992   1.492       .  S
O854        C856   1.277       .  A
O855       Ni866   1.939       .  S
C856        O862   1.277       .  A
C856        C936   1.497       .  S
C857        C967   1.448       .  S
H858        O859   0.965       .  S
O859       Ni861   1.902       .  S
O859       Ni866   1.913       .  S
O860       Ni861   1.901       .  S
Ni861       O865   1.917       .  S
Ni861       O863   1.928       .  S
O862       Ni867   1.940       .  S
C864        O865   1.264       .  A
C864        C978   1.490       .  S
O869       Ni875   1.950       .  S
O870       Ni893   1.925       .  S
O870        C879   1.266       .  A
O871       Ni875   1.909       .  S
O871       Ni893   1.905       .  S
O871        H894   0.966       .  S
C872        O889   1.274       .  A
C872        O881   1.277       .  A
C872       C1037   1.457       .  S
O873       Ni892   1.894       .  S
O874       Ni892   1.909       .  S
O874        C876   1.272       .  A
Ni875       O878   1.929       .  S
Ni875       O880   1.904       .  S
C876        O886   1.277       .  A
C876       C1006   1.487       .  S
O877       Ni893   1.938       .  S
O877        C883   1.284       .  A
O878        C883   1.282       .  A
C879        C981   1.490       .  S
O880        C882   1.267       .  A
O881      Ni1164   1.917       .  S
C882        O888   1.262       .  A
C882       C1595   1.469       .  S
C883       C1023   1.495       .  S
H884       O1157   0.967       .  S
O885       Ni887   1.877       .  S
O885       Ni892   1.894       .  S
O885       H1428   0.967       .  S
O886       Ni887   1.939       .  S
Ni887       O891   1.901       .  S
Ni887      O1433   1.897       .  S
O888       Ni893   1.900       .  S
O889      Ni1159   1.897       .  S
C890        O891   1.267   1_455  A
C890        C995   1.492       .  S
Ni892      O1425   1.917       .  S
O895       Ni901   1.948       .  S
O895        C916   1.277       .  A
O896       Ni919   1.918       .  S
O896        C905   1.264       .  A
O897       Ni901   1.912       .  S
O897       Ni919   1.901       .  S
O897       Ni913   1.924       .  S
O897        H920   0.966       .  S
C898        O915   1.277       .  A
C898        O907   1.274       .  A
C898        C964   1.448       .  S
O899       Ni918   1.890       .  S
O899        C905   1.271       .  A
O900       Ni918   1.924       .  S
O900        C902   1.278       .  A
Ni901       O904   1.939       .  S
Ni901       O906   1.909       .  S
C902        O912   1.278       .  A
C902        C939   1.496       .  S
O903       Ni919   1.929       .  S
O903        C909   1.279       .  A
O904        C909   1.283       .  A
C905       C1076   1.494       .  S
O906        C908   1.266       .  A
O907      Ni1190   1.903       .  S
C908        O914   1.265       .  A
C908       C1497   1.475       .  S
C909        C925   1.492       .  S
H910       O1183   0.967       .  S
O911       Ni919   1.932       .  S
O911       Ni913   1.873       .  S
O911       Ni918   1.893       .  S
O911       H1454   0.967       .  S
O912       Ni913   1.939       .  S
Ni913       O917   1.900       .  S
Ni913      O1459   1.907       .  S
O914       Ni919   1.900       .  S
O915      Ni1185   1.907       .  S
C916        O917   1.270       .  A
C916       C1062   1.505       .  S
Ni918      O1451   1.904       .  S
C921        C922   1.411       .  A
C921        C926   1.404       .  A
C921        H928   1.084       .  S
C922        C923   1.416       .  A
C923        C924   1.406       .  A
C923        N930   1.437       .  S
C924        C925   1.410       .  A
C924        H929   1.084       .  S
C925        C926   1.412       .  A
C926        N927   1.432       .  S
N927        H931   1.044       .  S
N927        H932   1.046       .  S
N930        H933   1.042       .  S
N930        H934   1.045       .  S
C935        C936   1.409       .  A
C935        C940   1.412       .  A
C935        H942   1.083       .  S
C936        C937   1.414       .  A
C937        C938   1.412       .  A
C937        N944   1.438       .  S
C938        C939   1.408       .  A
C938        H943   1.083       .  S
C939        C940   1.413       .  A
C940        N941   1.438       .  S
N941        H945   1.046       .  S
N941        H946   1.046       .  S
N944        H947   1.046       .  S
N944        H948   1.046       .  S
C949       C1494   1.405       .  A
C949        C954   1.392   1_556  A
C949        H956   1.084       .  S
C950       C1221   1.405       .  A
C950        C951   1.417       .  A
C951        C952   1.391       .  A
C951        N958   1.433       .  S
C952        C953   1.405       .  A
C952        H957   1.084       .  S
C953       C1180   1.475       .  S
C953       C1226   1.418       .  A
C954       C1497   1.418       .  A
C954        N955   1.433       .  S
N955        H959   1.045       .  S
N955        H960   1.045       .  S
N958        H961   1.045       .  S
N958        H962   1.045       .  S
C963        C964   1.399       .  A
C963        C968   1.397       .  A
C963        H970   1.084       .  S
C964       C1237   1.408       .  A
C965       C1508   1.408       .  A
C965        C966   1.396       .  A
C965        N972   1.438       .  S
C966       C1511   1.399   1_554  A
C966        H971   1.084       .  S
C967       C1238   1.399       .  A
C967        C968   1.407       .  A
C968        N969   1.438       .  S
N969        H973   1.046       .  S
N969        H974   1.045       .  S
N972        H975   1.043       .  S
N972        H976   1.046       .  S
C977       C1254   1.405       .  A
C977        H984   1.081       .  S
C978        C979   1.417       .  A
C979        C980   1.403   1_545  A
C979        N986   1.438       .  S
C980        H985   1.081       .  S
C981        C982   1.416   1_565  A
C982       C1521   1.405   1_554  A
C982        N983   1.439       .  S
N983        H987   1.044   1_545  S
N983        H988   1.043   1_545  S
N986        H989   1.043       .  S
N986        H990   1.046       .  S
C991        C996   1.406   1_556  A
C991        H998   1.084       .  S
C992        C993   1.418       .  A
C993        C994   1.407       .  A
C993       N1000   1.438       .  S
C994        H999   1.084       .  S
C995        C996   1.417   1_455  A
C996        N997   1.438       .  S
N997       H1001   1.044       .  S
N997       H1002   1.042       .  S
N1000      H1003   1.042       .  S
N1000      H1004   1.045       .  S
C1005      C1006   1.402       .  A
C1005      C1010   1.408       .  A
C1005      H1012   1.084       .  S
C1006      C1007   1.418       .  A
C1007      C1008   1.408       .  A
C1007      N1014   1.438       .  S
C1008      C1009   1.402       .  A
C1008      H1013   1.084       .  S
C1009      C1010   1.418       .  A
C1010      N1011   1.438       .  S
N1011      H1015   1.046       .  S
N1011      H1016   1.045       .  S
N1014      H1017   1.045       .  S
N1014      H1018   1.046       .  S
C1019      C1020   1.409       .  A
C1019      C1024   1.408       .  A
C1019      H1026   1.084       .  S
C1020      C1021   1.412       .  A
C1021      C1022   1.408       .  A
C1021      N1028   1.432       .  S
C1022      C1023   1.409       .  A
C1022      H1027   1.084       .  S
C1023      C1024   1.412       .  A
C1024      N1025   1.432       .  S
N1025      H1029   1.046       .  S
N1025      H1030   1.046       .  S
N1028      H1031   1.046       .  S
N1028      H1032   1.046       .  S
C1033      C1034   1.399       .  A
C1033      C1038   1.397       .  A
C1033      H1040   1.084       .  S
C1034      C1035   1.410       .  A
C1035      C1036   1.397       .  A
C1035      N1042   1.437       .  S
C1036      C1037   1.399       .  A
C1036      H1041   1.084       .  S
C1037      C1038   1.411       .  A
C1038      N1039   1.438       .  S
N1039      H1315   1.046       .  S
N1039      H1316   1.045       .  S
N1042      H1045   1.045       .  S
N1042      H1046   1.046       .  S
H1043      N1583   1.046       .  S
H1044      N1583   1.045       .  S
C1047      C1592   1.399       .  A
C1047      C1052   1.390       .  A
C1047      H1054   1.084       .  S
C1048      C1319   1.399       .  A
C1048      C1049   1.416       .  A
C1049      C1050   1.388       .  A
C1049      N1056   1.427       .  S
C1050      C1051   1.398       .  A
C1050      H1055   1.084       .  S
C1051      C1154   1.469       .  S
C1051      C1324   1.417       .  A
C1052      C1595   1.418   1_556  A
C1052      N1053   1.429   1_556  S
N1053      H1057   1.045       .  S
N1053      H1058   1.045   1_554  S
N1056      H1059   1.045       .  S
N1056      H1060   1.045       .  S
C1061      C1334   1.406       .  A
C1061      C1066   1.412   1_545  A
C1061      H1068   1.081       .  S
C1062      C1605   1.406       .  A
C1062      C1063   1.420   1_554  A
C1063      C1608   1.411   1_545  A
C1063      N1070   1.438       .  S
C1064      C1335   1.411   1_565  A
C1064      C1065   1.405       .  A
C1064      H1069   1.080       .  S
C1065      C1066   1.420       .  A
C1066      N1067   1.438       .  S
N1067      H1071   1.046       .  S
N1067      H1072   1.046       .  S
N1070      H1073   1.046       .  S
N1070      H1074   1.046   1_545  S
C1075      C1076   1.408   1_556  A
C1075      C1624   1.410       .  A
C1075      H1082   1.082   1_556  S
C1076      C1621   1.415   1_554  A
C1077      C1348   1.415       .  A
C1077      C1078   1.410       .  A
C1077      N1084   1.438       .  S
C1078      C1079   1.407       .  A
C1078      H1083   1.082       .  S
C1079      C1080   1.411       .  A
C1080      C1347   1.410       .  A
C1080      N1081   1.437       .  S
N1081      H1357   1.046       .  S
N1081      H1086   1.045       .  S
N1084      H1359   1.045       .  S
N1084      H1088   1.046       .  S
H1085      N1625   1.046       .  S
H1087      N1628   1.045       .  S
O1089     Ni1095   1.893       .  S
O1089      C1110   1.268       .  A
O1090     Ni1113   1.900       .  S
O1090      C1099   1.269       .  A
O1091     Ni1095   1.894       .  S
O1091     Ni1113   1.876       .  S
O1091     Ni1107   1.931       .  S
O1091      H1114   0.966       .  S
C1092      O1109   1.284       .  A
C1092      O1101   1.282       .  A
C1092      C1292   1.496       .  S
O1093     Ni1112   1.949       .  S
O1093      C1099   1.275       .  A
O1094     Ni1112   1.904       .  S
O1094      C1096   1.267       .  A
Ni1095     O1098   1.916       .  S
Ni1095     O1100   1.910       .  S
C1096      O1106   1.264       .  A
C1096      C1320   1.470       .  S
O1097     Ni1113   1.900       .  S
O1097      C1103   1.276       .  A
O1098      C1103   1.277       .  A
C1099      C1337   1.505       .  S
O1100      C1102   1.272       .  A
O1101     Ni1112   1.931       .  S
C1102      O1108   1.277       .  A
C1102      C1281   1.487       .  S
C1103      C1306   1.457       .  S
H1104      O1105   0.966       .  S
O1105     Ni1113   1.917       .  S
O1105     Ni1107   1.905       .  S
O1105     Ni1112   1.909       .  S
O1106     Ni1107   1.904       .  S
Ni1107     O1111   1.929       .  S
Ni1107     O1109   1.938       .  S
O1108     Ni1113   1.939       .  S
C1110      O1111   1.268       .  A
C1110      C1351   1.493       .  S
O1115     Ni1121   1.891       .  S
O1116     Ni1139   1.898       .  S
O1116      C1125   1.267       .  A
O1117     Ni1121   1.895       .  S
O1117     Ni1139   1.875       .  S
O1117      H1140   0.967       .  S
C1118      O1135   1.280       .  A
C1118      O1127   1.284       .  A
C1118      C1194   1.491       .  S
O1119     Ni1138   1.952       .  S
O1120     Ni1138   1.906       .  S
O1120      C1122   1.265       .  A
Ni1121     O1124   1.905       .  S
Ni1121     O1126   1.922       .  S
C1122      O1132   1.264       .  A
C1122      C1222   1.475       .  S
O1123     Ni1139   1.904       .  S
O1123      C1129   1.276       .  A
O1124      C1129   1.274       .  A
C1125      C1264   1.492       .  S
O1126      C1128   1.277       .  A
O1127     Ni1138   1.939       .  S
C1128      O1134   1.277       .  A
C1128      C1208   1.497       .  S
C1129      C1239   1.449       .  S
H1130      O1131   0.965       .  S
O1131     Ni1133   1.902       .  S
O1131     Ni1138   1.914       .  S
O1132     Ni1133   1.901       .  S
Ni1133     O1137   1.917       .  S
Ni1133     O1135   1.927       .  S
O1134     Ni1139   1.940       .  S
C1136      O1137   1.264       .  A
C1136      C1250   1.490       .  S
O1141     Ni1147   1.950       .  S
O1142     Ni1165   1.925       .  S
O1142      C1151   1.266       .  A
O1143     Ni1147   1.909       .  S
O1143     Ni1165   1.906       .  S
O1143      H1166   0.966       .  S
C1144      O1161   1.274       .  A
C1144      O1153   1.277       .  A
C1144      C1309   1.457       .  S
O1145     Ni1164   1.894       .  S
O1146     Ni1164   1.909       .  S
O1146      C1148   1.272       .  A
Ni1147     O1150   1.930       .  S
Ni1147     O1152   1.903       .  S
C1148      O1158   1.277       .  A
C1148      C1278   1.487       .  S
O1149     Ni1165   1.938       .  S
O1149      C1155   1.284       .  A
O1150      C1155   1.282       .  A
C1151      C1253   1.490       .  S
O1152      C1154   1.267       .  A
O1153     Ni1436   1.917       .  S
C1154      O1160   1.262       .  A
C1155      C1295   1.495       .  S
H1156      O1429   0.967       .  S
O1157     Ni1159   1.877       .  S
O1157     Ni1164   1.894       .  S
O1158     Ni1159   1.939       .  S
Ni1159     O1163   1.901       .  S
O1160     Ni1165   1.900       .  S
O1161     Ni1431   1.897       .  S
C1162      O1163   1.267   1_455  A
C1162      C1267   1.492       .  S
O1167     Ni1173   1.948       .  S
O1167      C1188   1.277       .  A
O1168     Ni1191   1.919       .  S
O1168      C1177   1.264       .  A
O1169     Ni1173   1.912       .  S
O1169     Ni1191   1.902       .  S
O1169     Ni1185   1.924       .  S
O1169      H1192   0.966       .  S
C1170      O1187   1.278       .  A
C1170      O1179   1.274       .  A
C1170      C1236   1.449       .  S
O1171     Ni1190   1.890       .  S
O1171      C1177   1.271       .  A
O1172     Ni1190   1.924       .  S
O1172      C1174   1.278       .  A
Ni1173     O1176   1.939       .  S
Ni1173     O1178   1.909       .  S
C1174      O1184   1.278       .  A
C1174      C1211   1.496       .  S
O1175     Ni1191   1.929       .  S
O1175      C1181   1.279       .  A
O1176      C1181   1.283       .  A
C1177      C1348   1.495       .  S
O1178      C1180   1.266       .  A
O1179     Ni1462   1.904       .  S
C1180      O1186   1.265       .  A
C1181      C1197   1.492       .  S
H1182      O1455   0.967       .  S
O1183     Ni1191   1.932       .  S
O1183     Ni1185   1.873       .  S
O1183     Ni1190   1.893       .  S
O1184     Ni1185   1.939       .  S
Ni1185     O1189   1.900       .  S
O1186     Ni1191   1.900       .  S
O1187     Ni1457   1.907       .  S
C1188      O1189   1.270       .  A
C1188      C1334   1.505       .  S
C1193      C1194   1.411       .  A
C1193      C1198   1.404       .  A
C1193      H1200   1.084       .  S
C1194      C1195   1.416       .  A
C1195      C1196   1.406       .  A
C1195      N1202   1.437       .  S
C1196      C1197   1.410       .  A
C1196      H1201   1.084       .  S
C1197      C1198   1.412       .  A
C1198      N1199   1.432       .  S
N1199      H1203   1.044       .  S
N1199      H1204   1.046       .  S
N1202      H1205   1.042       .  S
N1202      H1206   1.045       .  S
C1207      C1208   1.409       .  A
C1207      C1212   1.412       .  A
C1207      H1214   1.083       .  S
C1208      C1209   1.414       .  A
C1209      C1210   1.412       .  A
C1209      N1216   1.438       .  S
C1210      C1211   1.408       .  A
C1210      H1215   1.083       .  S
C1211      C1212   1.413       .  A
C1212      N1213   1.438       .  S
N1213      H1217   1.046       .  S
N1213      H1218   1.046       .  S
N1216      H1219   1.046       .  S
N1216      H1220   1.046       .  S
C1221      C1226   1.392       .  A
C1221      H1228   1.084       .  S
C1222      C1493   1.405       .  A
C1222      C1223   1.417       .  A
C1223      C1224   1.391       .  A
C1223      N1230   1.433       .  S
C1224      C1225   1.405       .  A
C1224      H1229   1.084       .  S
C1225      C1452   1.475       .  S
C1225      C1498   1.417       .  A
C1226      N1227   1.433       .  S
N1227      H1231   1.045       .  S
N1227      H1232   1.045       .  S
N1230      H1233   1.045       .  S
N1230      H1234   1.045       .  S
C1235      C1236   1.399       .  A
C1235      C1240   1.397       .  A
C1235      H1242   1.084       .  S
C1236      C1509   1.408       .  A
C1237      C1238   1.396       .  A
C1237      N1244   1.438       .  S
C1238      H1243   1.084       .  S
C1239      C1510   1.399       .  A
C1239      C1240   1.407       .  A
C1240      N1241   1.438       .  S
N1241      H1245   1.046       .  S
N1241      H1246   1.045       .  S
N1244      H1247   1.043       .  S
N1244      H1248   1.046       .  S
C1249      C1526   1.405       .  A
C1249      H1256   1.081       .  S
C1250      C1251   1.417       .  A
C1251      C1252   1.403   1_545  A
C1251      N1258   1.438       .  S
C1252      H1257   1.081       .  S
C1253      C1254   1.416   1_565  A
C1254      N1255   1.439       .  S
N1255      H1259   1.044   1_545  S
N1255      H1260   1.043   1_545  S
N1258      H1261   1.043       .  S
N1258      H1262   1.046       .  S
C1263      C1268   1.406       .  A
C1263      H1270   1.084       .  S
C1264      C1265   1.418       .  A
C1265      C1266   1.407       .  A
C1265      N1272   1.438       .  S
C1266      H1271   1.084       .  S
C1267      C1268   1.417   1_455  A
C1268      N1269   1.438       .  S
N1269      H1273   1.044       .  S
N1269      H1274   1.042       .  S
N1272      H1275   1.042       .  S
N1272      H1276   1.045       .  S
C1277      C1278   1.402       .  A
C1277      C1282   1.408       .  A
C1277      H1284   1.084       .  S
C1278      C1279   1.418       .  A
C1279      C1280   1.408       .  A
C1279      N1286   1.438       .  S
C1280      C1281   1.402       .  A
C1280      H1285   1.084       .  S
C1281      C1282   1.418       .  A
C1282      N1283   1.438       .  S
N1283      H1287   1.046       .  S
N1283      H1288   1.045       .  S
N1286      H1289   1.045       .  S
N1286      H1290   1.046       .  S
C1291      C1292   1.409       .  A
C1291      C1296   1.408       .  A
C1291      H1298   1.084       .  S
C1292      C1293   1.412       .  A
C1293      C1294   1.408       .  A
C1293      N1300   1.432       .  S
C1294      C1295   1.409       .  A
C1294      H1299   1.084       .  S
C1295      C1296   1.412       .  A
C1296      N1297   1.432       .  S
N1297      H1301   1.046       .  S
N1297      H1302   1.046       .  S
N1300      H1303   1.046       .  S
N1300      H1304   1.046       .  S
C1305      C1306   1.399       .  A
C1305      C1310   1.397       .  A
C1305      H1312   1.084       .  S
C1306      C1307   1.410       .  A
C1307      C1308   1.397       .  A
C1307      N1314   1.437       .  S
C1308      C1309   1.399       .  A
C1308      H1313   1.084       .  S
C1309      C1310   1.411       .  A
C1310      N1311   1.438       .  S
N1311      H1587   1.046       .  S
N1311      H1588   1.045       .  S
N1314      H1317   1.045       .  S
N1314      H1318   1.046       .  S
C1319      C1324   1.391       .  A
C1319      H1326   1.084       .  S
C1320      C1591   1.400       .  A
C1320      C1321   1.416       .  A
C1321      C1322   1.388       .  A
C1321      N1328   1.427       .  S
C1322      C1323   1.398       .  A
C1322      H1327   1.084       .  S
C1323      C1426   1.469       .  S
C1323      C1596   1.417       .  A
C1324      N1325   1.429       .  S
N1325      H1329   1.045       .  S
N1325      H1330   1.045       .  S
N1328      H1331   1.045       .  S
N1328      H1332   1.045       .  S
C1333      C1606   1.406       .  A
C1333      C1338   1.412   1_545  A
C1333      H1340   1.081       .  S
C1334      C1335   1.420       .  A
C1335      N1342   1.438       .  S
C1336      C1607   1.411   1_565  A
C1336      C1337   1.405       .  A
C1336      H1341   1.080       .  S
C1337      C1338   1.420       .  A
C1338      N1339   1.438       .  S
N1339      H1343   1.046       .  S
N1339      H1344   1.046       .  S
N1342      H1345   1.046       .  S
N1342      H1346   1.046   1_545  S
C1347      C1348   1.408       .  A
C1347      H1354   1.082       .  S
C1349      C1620   1.415       .  A
C1349      C1350   1.409       .  A
C1349      N1356   1.438       .  S
C1350      C1351   1.407       .  A
C1350      H1355   1.082       .  S
C1351      C1352   1.411       .  A
C1352      C1619   1.410       .  A
C1352      N1353   1.437       .  S
N1353      H1629   1.046       .  S
N1353      H1358   1.045       .  S
N1356      H1631   1.045       .  S
N1356      H1360   1.046       .  S
O1361     Ni1367   1.893       .  S
O1361      C1382   1.268       .  A
O1362     Ni1385   1.900       .  S
O1362      C1371   1.269       .  A
O1363     Ni1367   1.894       .  S
O1363     Ni1385   1.876       .  S
O1363     Ni1379   1.931       .  S
O1363      H1386   0.966       .  S
C1364      O1381   1.283       .  A
C1364      O1373   1.282       .  A
C1364      C1564   1.496       .  S
O1365     Ni1384   1.949       .  S
O1365      C1371   1.275       .  A
O1366     Ni1384   1.904       .  S
O1366      C1368   1.267       .  A
Ni1367     O1370   1.916       .  S
Ni1367     O1372   1.910       .  S
C1368      O1378   1.264       .  A
C1368      C1592   1.470       .  S
O1369     Ni1385   1.899       .  S
O1369      C1375   1.275       .  A
O1370      C1375   1.277       .  A
C1371      C1609   1.505       .  S
O1372      C1374   1.272       .  A
O1373     Ni1384   1.930       .  S
C1374      O1380   1.277       .  A
C1374      C1553   1.487       .  S
C1375      C1578   1.457       .  S
H1376      O1377   0.966       .  S
O1377     Ni1385   1.917       .  S
O1377     Ni1379   1.905       .  S
O1377     Ni1384   1.909       .  S
O1378     Ni1379   1.903       .  S
Ni1379     O1383   1.929       .  S
Ni1379     O1381   1.937       .  S
O1380     Ni1385   1.939       .  S
C1382      O1383   1.267       .  A
C1382      C1623   1.493       .  S
O1387     Ni1393   1.891       .  S
O1388     Ni1411   1.898       .  S
O1388      C1397   1.267       .  A
O1389     Ni1393   1.895       .  S
O1389     Ni1411   1.876       .  S
O1389      H1412   0.967       .  S
C1390      O1407   1.280       .  A
C1390      O1399   1.284       .  A
C1390      C1466   1.491       .  S
O1391     Ni1410   1.952       .  S
O1392     Ni1410   1.906       .  S
O1392      C1394   1.265       .  A
Ni1393     O1396   1.905       .  S
Ni1393     O1398   1.921       .  S
C1394      O1404   1.264       .  A
C1394      C1494   1.475       .  S
O1395     Ni1411   1.904       .  S
O1395      C1401   1.276       .  A
O1396      C1401   1.274       .  A
C1397      C1536   1.492       .  S
O1398      C1400   1.277       .  A
O1399     Ni1410   1.939       .  S
C1400      O1406   1.277       .  A
C1400      C1480   1.497       .  S
C1401      C1511   1.449       .  S
H1402      O1403   0.965       .  S
O1403     Ni1405   1.902       .  S
O1403     Ni1410   1.913       .  S
O1404     Ni1405   1.901       .  S
Ni1405     O1409   1.916       .  S
Ni1405     O1407   1.928       .  S
O1406     Ni1411   1.940       .  S
C1408      O1409   1.264       .  A
C1408      C1522   1.490       .  S
O1413     Ni1419   1.950       .  S
O1414     Ni1437   1.925       .  S
O1414      C1423   1.266       .  A
O1415     Ni1419   1.909       .  S
O1415     Ni1437   1.905       .  S
O1415      H1438   0.966       .  S
C1416      O1433   1.274       .  A
C1416      O1425   1.277       .  A
C1416      C1581   1.457   1_554  S
O1417     Ni1436   1.894       .  S
O1418     Ni1436   1.909       .  S
O1418      C1420   1.272       .  A
Ni1419     O1422   1.930       .  S
Ni1419     O1424   1.903       .  S
C1420      O1430   1.277       .  A
C1420      C1550   1.487       .  S
O1421     Ni1437   1.937       .  S
O1421      C1427   1.284       .  A
O1422      C1427   1.282       .  A
C1423      C1525   1.490       .  S
O1424      C1426   1.267       .  A
C1426      O1432   1.262       .  A
C1427      C1567   1.495       .  S
O1429     Ni1431   1.877       .  S
O1429     Ni1436   1.894       .  S
O1430     Ni1431   1.939       .  S
Ni1431     O1435   1.901       .  S
O1432     Ni1437   1.901       .  S
C1434      O1435   1.267   1_455  A
C1434      C1539   1.492       .  S
O1439     Ni1445   1.948       .  S
O1439      C1460   1.277       .  A
O1440     Ni1463   1.918       .  S
O1440      C1449   1.264       .  A
O1441     Ni1445   1.912       .  S
O1441     Ni1463   1.902       .  S
O1441     Ni1457   1.924       .  S
O1441      H1464   0.966       .  S
C1442      O1459   1.277       .  A
C1442      O1451   1.274       .  A
C1442      C1508   1.449       .  S
O1443     Ni1462   1.890       .  S
O1443      C1449   1.271       .  A
O1444     Ni1462   1.924       .  S
O1444      C1446   1.278       .  A
Ni1445     O1448   1.939       .  S
Ni1445     O1450   1.909       .  S
C1446      O1456   1.278       .  A
C1446      C1483   1.496       .  S
O1447     Ni1463   1.929       .  S
O1447      C1453   1.279       .  A
O1448      C1453   1.283       .  A
C1449      C1620   1.494       .  S
O1450      C1452   1.266       .  A
C1452      O1458   1.265       .  A
C1453      C1469   1.492       .  S
O1455     Ni1463   1.932       .  S
O1455     Ni1457   1.873       .  S
O1455     Ni1462   1.893       .  S
O1456     Ni1457   1.939       .  S
Ni1457     O1461   1.900       .  S
O1458     Ni1463   1.900       .  S
C1460      O1461   1.270       .  A
C1460      C1606   1.505       .  S
C1465      C1466   1.411       .  A
C1465      C1470   1.404       .  A
C1465      H1472   1.084       .  S
C1466      C1467   1.416       .  A
C1467      C1468   1.406       .  A
C1467      N1474   1.437       .  S
C1468      C1469   1.410       .  A
C1468      H1473   1.084       .  S
C1469      C1470   1.412       .  A
C1470      N1471   1.432       .  S
N1471      H1475   1.044       .  S
N1471      H1476   1.046       .  S
N1474      H1477   1.042       .  S
N1474      H1478   1.045       .  S
C1479      C1480   1.409       .  A
C1479      C1484   1.412       .  A
C1479      H1486   1.083       .  S
C1480      C1481   1.414       .  A
C1481      C1482   1.412       .  A
C1481      N1488   1.438       .  S
C1482      C1483   1.408       .  A
C1482      H1487   1.083       .  S
C1483      C1484   1.413       .  A
C1484      N1485   1.438       .  S
N1485      H1489   1.046       .  S
N1485      H1490   1.046       .  S
N1488      H1491   1.046       .  S
N1488      H1492   1.046       .  S
C1493      C1498   1.392       .  A
C1493      H1500   1.084       .  S
C1494      C1495   1.417       .  A
C1495      C1496   1.392       .  A
C1495      N1502   1.433       .  S
C1496      C1497   1.405   1_556  A
C1496      H1501   1.084       .  S
C1498      N1499   1.433       .  S
N1499      H1503   1.045       .  S
N1499      H1504   1.045       .  S
N1502      H1505   1.045       .  S
N1502      H1506   1.045       .  S
C1507      C1508   1.399   1_556  A
C1507      C1512   1.397       .  A
C1507      H1514   1.084       .  S
C1509      C1510   1.396       .  A
C1509      N1516   1.438       .  S
C1510      H1515   1.084       .  S
C1511      C1512   1.407       .  A
C1512      N1513   1.438       .  S
N1513      H1517   1.046       .  S
N1513      H1518   1.045       .  S
N1516      H1519   1.043       .  S
N1516      H1520   1.046       .  S
C1521      H1528   1.081       .  S
C1522      C1523   1.417       .  A
C1523      C1524   1.403   1_546  A
C1523      N1530   1.438       .  S
C1524      H1529   1.081       .  S
C1525      C1526   1.416   1_565  A
C1526      N1527   1.439       .  S
N1527      H1531   1.044   1_545  S
N1527      H1532   1.043   1_545  S
N1530      H1533   1.043       .  S
N1530      H1534   1.046       .  S
C1535      C1540   1.406       .  A
C1535      H1542   1.084       .  S
C1536      C1537   1.418       .  A
C1537      C1538   1.407       .  A
C1537      N1544   1.438       .  S
C1538      H1543   1.084       .  S
C1539      C1540   1.417   1_455  A
C1540      N1541   1.438       .  S
N1541      H1545   1.044       .  S
N1541      H1546   1.042       .  S
N1544      H1547   1.042       .  S
N1544      H1548   1.045       .  S
C1549      C1550   1.402       .  A
C1549      C1554   1.408       .  A
C1549      H1556   1.084       .  S
C1550      C1551   1.418       .  A
C1551      C1552   1.408       .  A
C1551      N1558   1.438       .  S
C1552      C1553   1.402       .  A
C1552      H1557   1.084       .  S
C1553      C1554   1.418       .  A
C1554      N1555   1.438       .  S
N1555      H1559   1.046       .  S
N1555      H1560   1.045       .  S
N1558      H1561   1.045       .  S
N1558      H1562   1.046       .  S
C1563      C1564   1.409       .  A
C1563      C1568   1.408       .  A
C1563      H1570   1.084       .  S
C1564      C1565   1.412       .  A
C1565      C1566   1.408       .  A
C1565      N1572   1.432       .  S
C1566      C1567   1.409       .  A
C1566      H1571   1.084       .  S
C1567      C1568   1.412       .  A
C1568      N1569   1.432       .  S
N1569      H1573   1.046       .  S
N1569      H1574   1.046       .  S
N1572      H1575   1.046       .  S
N1572      H1576   1.046       .  S
C1577      C1578   1.398       .  A
C1577      C1582   1.397   1_556  A
C1577      H1584   1.084   1_556  S
C1578      C1579   1.410       .  A
C1579      C1580   1.397       .  A
C1579      N1586   1.437       .  S
C1580      C1581   1.399       .  A
C1580      H1585   1.084       .  S
C1581      C1582   1.411   1_556  A
C1582      N1583   1.438       .  S
N1586      H1589   1.045       .  S
N1586      H1590   1.046       .  S
C1591      C1596   1.391       .  A
C1591      H1598   1.084       .  S
C1592      C1593   1.416       .  A
C1593      C1594   1.388       .  A
C1593      N1600   1.427       .  S
C1594      C1595   1.398   1_556  A
C1594      H1599   1.084   1_556  S
C1596      N1597   1.429       .  S
N1597      H1601   1.045       .  S
N1597      H1602   1.045       .  S
N1600      H1603   1.045       .  S
N1600      H1604   1.045       .  S
C1605      C1610   1.412   1_544  A
C1605      H1612   1.081       .  S
C1606      C1607   1.420       .  A
C1607      N1614   1.438       .  S
C1608      C1609   1.405       .  A
C1608      H1613   1.080       .  S
C1609      C1610   1.420       .  A
C1610      N1611   1.438       .  S
N1611      H1615   1.046       .  S
N1611      H1616   1.046       .  S
N1614      H1617   1.046       .  S
N1614      H1618   1.046   1_545  S
C1619      C1620   1.408       .  A
C1619      H1626   1.082       .  S
C1621      C1622   1.409       .  A
C1621      N1628   1.438   1_556  S
C1622      C1623   1.407       .  A
C1622      H1627   1.082       .  S
C1623      C1624   1.411       .  A
C1624      N1625   1.437       .  S
N1625      H1630   1.045       .  S
N1628      H1632   1.046       .  S
