geometry optimzed in LAMMPS
_audit_creation_date              2020-12-01 
_audit_creation_method            'lammps2cif' 
_symmetry_space_group_name_H-M    'P1' 
_symmetry_Int_Tables_number       1 
_symmetry_cell_setting            triclinic 
loop_ 
_symmetry_equiv_pos_as_xyz 
  x,y,z 
_cell_length_a                    25.5797005 
_cell_length_b                    25.389833921873343 
_cell_length_c                    25.347233644898903 
_cell_angle_alpha                 90.70179956400372 
_cell_angle_beta                  90.28517106093346 
_cell_angle_gamma                 90.60032987249242 
loop_ 
_atom_site_label 
_atom_site_type_symbol 
_atom_site_fract_x 
_atom_site_fract_y 
_atom_site_fract_z 
_atom_site_charge 
Zn1        Zn  0.80265979  0.71484367  0.81238877     1.49700
Zn2        Zn  0.78411921  0.80470927  0.72368250     1.49400
Zn3        Zn  0.70378514  0.70282967  0.73194944     1.49100
Zn4        Zn  0.70563733  0.79042403  0.82089667     1.49500
O5          O  0.74957216  0.75292444  0.77143823    -1.83200
O6          O  0.87544138  0.73512502  0.78869418    -0.73800
O7          O  0.76123338  0.79426069  0.64425499    -0.73700
O8          O  0.72272391  0.62479000  0.74676424    -0.73200
O9          O  0.86308772  0.79107255  0.72290811    -0.73900
O10         O  0.79182779  0.63496587  0.79974944    -0.73500
O11         O  0.71774616  0.71931073  0.65680079    -0.74000
O12         O  0.62968385  0.77800249  0.80271626    -0.73400
O13         O  0.77504783  0.87883539  0.75581069    -0.74200
O14         O  0.62415203  0.71523071  0.74122968    -0.73600
O15         O  0.72116395  0.86794425  0.82358592    -0.74000
O16         O  0.72086815  0.76910964  0.89410603    -0.74000
O17         O  0.79644902  0.72682047  0.89263245    -0.73700
C18         C  0.89315340  0.76284173  0.75099221     0.78000
C19         C  0.73825194  0.75291370  0.62578614     0.78500
C20         C  0.75888042  0.60507285  0.77519416     0.77500
C21         C  0.60248716  0.74986245  0.77040524     0.77900
C22         C  0.75073760  0.89699786  0.79607001     0.79000
C23         C  0.75828113  0.74662028  0.91788322     0.78100
C24         C  0.83382001  0.18219697  0.49969594     0.87400
C25         C  0.79143802  0.16987234  0.45847880    -0.52800
C26         C  0.74810019  0.20089535  0.46224525     0.10300
C27         C  0.74855772  0.23476059  0.51488428     0.21300
C28         C  0.84054761  0.24318102  0.49765905    -0.53600
C29         C  0.79567817  0.27079605  0.50660182     0.10400
C30         C  0.80718749  0.17059332  0.55161071    -0.53100
C31         C  0.76534725  0.20112202  0.56307091     0.11000
H32         H  0.80044864  0.15098356  0.42121013     0.15500
H33         H  0.71083243  0.25398199  0.52311650     0.01300
H34         H  0.87743609  0.26198061  0.48776639     0.15800
H35         H  0.82623188  0.14630132  0.58083739     0.15600
C36         C  0.19883104  0.15957721  0.48585589     0.87400
C37         C  0.24069576  0.15229855  0.52868077    -0.52800
C38         C  0.27538074  0.19326843  0.53385812     0.10300
C39         C  0.27135989  0.23183118  0.48579882     0.21300
C40         C  0.17902715  0.21673739  0.49363381    -0.53600
C41         C  0.21713752  0.25492000  0.49370685     0.10400
C42         C  0.23113646  0.16028747  0.43539684    -0.53100
C43         C  0.26718491  0.19959208  0.43262405     0.11000
H44         H  0.23842166  0.12206653  0.55837653     0.15500
H45         H  0.30436191  0.26022140  0.48392348     0.01300
H46         H  0.13830190  0.22483699  0.50166083     0.15800
H47         H  0.22246951  0.13602056  0.40109482     0.15600
C48         C  0.75836728  0.66452912  0.50758158     0.87400
C49         C  0.72781171  0.69408143  0.46620683    -0.52800
C50         C  0.73289326  0.74768322  0.46897187     0.10300
C51         C  0.76351796  0.76679669  0.52000040     0.21300
C52         C  0.81429003  0.68797707  0.50766137    -0.53600
C53         C  0.81697769  0.74132241  0.51304383     0.10400
C54         C  0.73658041  0.68383392  0.55955409    -0.53100
C55         C  0.73969355  0.73691373  0.56846384     0.11000
H56         H  0.71255113  0.67364950  0.43133158     0.15500
H57         H  0.76511282  0.81028348  0.52506917     0.01300
H58         H  0.84940514  0.66456275  0.50422807     0.15800
H59         H  0.72783890  0.65634747  0.59074585     0.15600
C60         C  0.22647812  0.64705776  0.47632054     0.87400
C61         C  0.26065503  0.66879927  0.52116425    -0.52800
C62         C  0.26036423  0.72225163  0.52760548     0.10300
C63         C  0.23230987  0.75023011  0.48071284     0.21300
C64         C  0.17352497  0.67488694  0.48121604    -0.53600
C65         C  0.17651780  0.72840144  0.48417472     0.10400
C66         C  0.25123322  0.67133873  0.42774710    -0.53100
C67         C  0.25403861  0.72528830  0.42839475     0.11000
H68         H  0.27519586  0.64306999  0.55189442     0.15500
H69         H  0.23500000  0.79389302  0.48257675     0.01300
H70         H  0.13653898  0.65365964  0.48416606     0.15800
H71         H  0.26210676  0.64928406  0.39302383     0.15600
C72         C  0.33935400  0.49869938  0.68677557     0.87400
C73         C  0.29899359  0.53931451  0.67317728    -0.52800
C74         C  0.25482378  0.53739943  0.70221240     0.10300
C75         C  0.25118577  0.48591992  0.73587557     0.21300
C76         C  0.34362143  0.49719961  0.74822779    -0.53600
C77         C  0.29727209  0.49092099  0.77399918     0.10400
C78         C  0.31232871  0.44639731  0.67256989    -0.53100
C79         C  0.26649949  0.43767277  0.69922071     0.11000
H80         H  0.30970804  0.57384757  0.65023766     0.15500
H81         H  0.21273776  0.48059626  0.75533753     0.01300
H82         H  0.38053277  0.50104763  0.76938443     0.15800
H83         H  0.33201741  0.41487425  0.65167577     0.15600
C84         C  0.34877828  0.48895614  0.26258960     0.87400
C85         C  0.30651045  0.45212536  0.28200322    -0.52800
C86         C  0.26106281  0.45212936  0.25400289     0.10300
C87         C  0.25961428  0.49867740  0.21287132     0.21300
C88         C  0.35154129  0.47998375  0.20156262    -0.53600
C89         C  0.30490522  0.48610061  0.17507825     0.10400
C90         C  0.32534839  0.54295037  0.26793030    -0.53100
C91         C  0.27927196  0.55055716  0.24192125     0.11000
H92         H  0.31660073  0.42060751  0.30894991     0.15500
H93         H  0.22114639  0.50373749  0.19336796     0.01300
H94         H  0.38677348  0.47187953  0.18003235     0.15800
H95         H  0.34666765  0.57419725  0.28869249     0.15600
C96         C  0.71358575  0.49507985  0.85734369     0.87400
C97         C  0.74786640  0.54178211  0.84275902    -0.52800
C98         C  0.75661013  0.54789519  0.79011998     0.10300
C99         C  0.73481320  0.49965927  0.75628638     0.21300
C100        C  0.66515791  0.49887573  0.82083274    -0.53600
C101        C  0.67610409  0.50034587  0.76787424     0.10400
C102        C  0.74190902  0.44735443  0.83602905    -0.53100
C103        C  0.75324777  0.44757433  0.78361032     0.11000
H104        H  0.75621474  0.57284594  0.87166098     0.15500
H105        H  0.74505542  0.50087930  0.71385452     0.01300
H106        H  0.62534937  0.49944447  0.83414070     0.15800
H107        H  0.74800662  0.41303810  0.86053623     0.15600
C108        C  0.69303037  0.51016094  0.35014222     0.87400
C109        C  0.72776291  0.55890550  0.35458064    -0.52800
C110        C  0.76409677  0.56310629  0.31585342     0.10300
C111        C  0.76605407  0.51213449  0.27954379     0.21300
C112        C  0.67345487  0.50799924  0.29176677    -0.53600
C113        C  0.71195176  0.50945906  0.25481461     0.10400
C114        C  0.73281104  0.46605293  0.35572044    -0.53100
C115        C  0.76713688  0.46205501  0.31531184     0.11000
H116        H  0.72018859  0.59111846  0.38178378     0.15500
H117        H  0.79907616  0.51234856  0.25138453     0.01300
H118        H  0.63229771  0.50619611  0.28110298     0.15800
H119        H  0.73032150  0.43569606  0.38512087     0.15600
C120        C  0.52391124  0.84117724  0.21579562     0.87400
C121        C  0.47429240  0.81704857  0.19283828    -0.52800
C122        C  0.46406751  0.76674191  0.20840010     0.10300
C123        C  0.51037188  0.74372832  0.24293930     0.21300
C124        C  0.51846120  0.83221300  0.27633854    -0.53600
C125        C  0.51162769  0.78094673  0.29052621     0.10400
C126        C  0.56649054  0.80533526  0.19619047    -0.53100
C127        C  0.56450316  0.75540458  0.21467250     0.11000
H128        H  0.44397302  0.84104143  0.17598020     0.15500
H129        H  0.50462065  0.70164335  0.25299189     0.01300
H130        H  0.52040681  0.86396101  0.30542481     0.15800
H131        H  0.60199819  0.82210916  0.17928847     0.15600
C132        C  0.49030372  0.29550562  0.32808542     0.87400
C133        C  0.44521247  0.30889517  0.29180044    -0.52800
C134        C  0.44904170  0.28903973  0.24202993     0.10300
C135        C  0.50389333  0.26306639  0.23189878     0.21300
C136        C  0.49584756  0.23481823  0.32150595    -0.53600
C137        C  0.50415118  0.21831377  0.27073800     0.10400
C138        C  0.53843688  0.31948715  0.30215509    -0.53100
C139        C  0.54987667  0.29947471  0.25368764     0.11000
H140        H  0.40712844  0.31886983  0.30741211     0.15500
H141        H  0.50870037  0.25141890  0.18991796     0.01300
H142        H  0.49517443  0.20785231  0.35437952     0.15800
H143        H  0.56751522  0.34105479  0.32553802     0.15600
C144        C  0.49928521  0.84084640  0.72580176     0.87400
C145        C  0.54263737  0.82054606  0.76044273    -0.52800
C146        C  0.54753913  0.76711906  0.76050491     0.10300
C147        C  0.50163707  0.73820230  0.72931863     0.21300
C148        C  0.50467563  0.81338862  0.67220110    -0.53600
C149        C  0.50591941  0.76021144  0.67337797     0.10400
C150        C  0.45143985  0.81678374  0.75187467    -0.53100
C151        C  0.44925536  0.76280278  0.75070388     0.11000
H152        H  0.57020579  0.84690318  0.78031388     0.15500
H153        H  0.50289821  0.69480421  0.73152644     0.01300
H154        H  0.50697008  0.83485155  0.63535573     0.15800
H155        H  0.41841295  0.84026561  0.76448880     0.15600
C156        C  0.50610491  0.32295161  0.70274148     0.87400
C157        C  0.55569148  0.32660509  0.73581755    -0.52800
C158        C  0.56304396  0.28528835  0.76898649     0.10300
C159        C  0.51237781  0.24932340  0.77228808     0.21300
C160        C  0.50492355  0.26566396  0.68002646    -0.53600
C161        C  0.50851333  0.22743695  0.71682440     0.10400
C162        C  0.46399935  0.32634495  0.74491054    -0.53100
C163        C  0.46066999  0.28342843  0.77608231     0.11000
H164        H  0.58657520  0.35484925  0.72894722     0.15500
H165        H  0.51589126  0.21976299  0.80387666     0.01300
H166        H  0.49996243  0.25653240  0.63828150     0.15800
H167        H  0.43261884  0.35480029  0.74286965     0.15600
Zn168      Zn  0.22676195  0.18526301  0.77926105     1.49700
Zn169      Zn  0.28829245  0.28991224  0.78316508     1.49400
Zn170      Zn  0.32383950  0.19693365  0.70252716     1.49100
Zn171      Zn  0.21868248  0.26867072  0.68227333     1.49500
O172        O  0.26524450  0.23505917  0.73416393    -1.83200
O173        O  0.24283932  0.19610892  0.85745179    -0.73800
O174        O  0.36867271  0.28534396  0.79747027    -0.73700
O175        O  0.31426835  0.11673201  0.71519891    -0.73200
O176        O  0.24378815  0.28242515  0.84832256    -0.73900
O177        O  0.23995552  0.11026965  0.76015224    -0.73500
O178        O  0.39354527  0.22863438  0.73472063    -0.74000
O179        O  0.23839931  0.23569955  0.60984630    -0.73400
O180        O  0.27626703  0.36372875  0.75485263    -0.74200
O181        O  0.31781925  0.20069895  0.61980571    -0.73600
O182        O  0.23378620  0.34980996  0.67928716    -0.74000
O183        O  0.14003873  0.25779179  0.70628364    -0.74000
O184        O  0.15137337  0.19946814  0.77036899    -0.73700
C185        C  0.24480431  0.24210998  0.87766899     0.78000
C186        C  0.40504636  0.26188181  0.77195444     0.78500
C187        C  0.27672040  0.08913895  0.73424095     0.77500
C188        C  0.27874012  0.21267797  0.59044290     0.77900
C189        C  0.25611971  0.38119818  0.71254412     0.79000
C190        C  0.12198481  0.22984801  0.74414219     0.78100
Zn191      Zn  0.31001213  0.71668337  0.26954898     1.49700
Zn192      Zn  0.29568152  0.79088222  0.17596299     1.49400
Zn193      Zn  0.20502392  0.70417872  0.19717297     1.49100
Zn194      Zn  0.22236550  0.80607120  0.27853599     1.49500
O195        O  0.25718596  0.75468997  0.23029396    -1.83200
O196        O  0.38802305  0.73026995  0.25253968    -0.73800
O197        O  0.26634809  0.77089404  0.10492003    -0.73700
O198        O  0.22242105  0.62315159  0.21155369    -0.73200
O199        O  0.37493024  0.77648816  0.18030524    -0.73900
O200        O  0.29531230  0.64133479  0.25543821    -0.73500
O201        O  0.20204335  0.71304490  0.11799592    -0.74000
O202        O  0.14241725  0.79817054  0.27120326    -0.73400
O203        O  0.28261367  0.86798521  0.17993833    -0.74200
O204        O  0.13312729  0.72506868  0.22216854    -0.73600
O205        O  0.23949848  0.88211699  0.25507605    -0.74000
O206        O  0.23615987  0.78694772  0.35796066    -0.74000
O207        O  0.29643921  0.72532223  0.34653090    -0.73700
C208        C  0.40624970  0.75492393  0.21313164     0.78000
C209        C  0.23043206  0.74021939  0.08721473     0.78500
C210        C  0.26354272  0.60753114  0.23556562     0.77500
C211        C  0.11360773  0.76250079  0.24973900     0.77900
C212        C  0.25927026  0.89859954  0.21182632     0.79000
C213        C  0.26473905  0.75014896  0.37617648     0.78100
Zn214      Zn  0.69486365  0.21429320  0.29572115     1.49700
Zn215      Zn  0.72245442  0.31745198  0.22742880     1.49400
Zn216      Zn  0.79096498  0.29049480  0.32373813     1.49100
Zn217      Zn  0.80020676  0.21277338  0.22010630     1.49500
O218        O  0.75209231  0.25812275  0.26599534    -1.83200
O219        O  0.62288080  0.24540768  0.27617559    -0.73800
O220        O  0.74890543  0.39184868  0.25257910    -0.73700
O221        O  0.77031263  0.25902184  0.39344042    -0.73200
O222        O  0.64027328  0.31717184  0.22955072    -0.73900
O223        O  0.70304283  0.20516217  0.37756320    -0.73500
O224        O  0.78712660  0.37109015  0.32798138    -0.74000
O225        O  0.87955008  0.22264566  0.24191670    -0.73400
O226        O  0.74402270  0.30369664  0.15356772    -0.74200
O227        O  0.86529729  0.27211959  0.31277709    -0.73600
O228        O  0.78986475  0.23087020  0.13985705    -0.74000
O229        O  0.78203416  0.13470165  0.23584242    -0.74000
O230        O  0.70141394  0.13843516  0.26908856    -0.73700
C231        C  0.60719653  0.28561474  0.25054569     0.78000
C232        C  0.77085088  0.40586964  0.29604284     0.78500
C233        C  0.73712467  0.22496177  0.40935040     0.77500
C234        C  0.89687824  0.24791986  0.28244263     0.77900
C235        C  0.76612112  0.27122181  0.12212286     0.79000
C236        C  0.74178540  0.11223114  0.25576843     0.78100
Zn237      Zn  0.80799220  0.19203621  0.73039050     1.49700
Zn238      Zn  0.72652412  0.28955261  0.71330467     1.49400
Zn239      Zn  0.71602507  0.21140362  0.81577775     1.49100
Zn240      Zn  0.81600390  0.29163254  0.80215373     1.49500
O241        O  0.76567090  0.24598350  0.76500375    -1.83200
O242        O  0.78664306  0.19031038  0.65377106    -0.73800
O243        O  0.65029132  0.28462577  0.73544645    -0.73700
O244        O  0.72443931  0.13130883  0.81742773    -0.73200
O245        O  0.73582694  0.25862864  0.63557359    -0.73900
O246        O  0.79258272  0.12167464  0.76388615    -0.73500
O247        O  0.63707950  0.23546233  0.80604029    -0.74000
O248        O  0.81209125  0.28206124  0.88213163    -0.73400
O249        O  0.74064881  0.37178038  0.72413827    -0.74200
O250        O  0.74026431  0.23247016  0.88910934    -0.73600
O251        O  0.79743875  0.36720807  0.79047829    -0.74000
O252        O  0.89044755  0.27919851  0.78209914    -0.74000
O253        O  0.88914230  0.20271084  0.73901271    -0.73700
C254        C  0.76066607  0.21730975  0.62052648     0.78000
C255        C  0.61946764  0.26650908  0.77077201     0.78500
C256        C  0.76019641  0.10304931  0.79710947     0.77500
C257        C  0.77755858  0.25935053  0.91017413     0.77900
C258        C  0.76686991  0.39404697  0.76165894     0.79000
C259        C  0.91447457  0.24033666  0.76168271     0.78100
C260        C  0.67250231  0.71874526  0.02713183     0.87400
C261        C  0.70819861  0.71084290  0.07312553    -0.52800
C262        C  0.75280446  0.74002109  0.07281931     0.10300
C263        C  0.75900329  0.77340833  0.02151804     0.21300
C264        C  0.66492819  0.77935093  0.02306881    -0.53600
C265        C  0.71020208  0.80871243  0.02072187     0.10400
C266        C  0.70522302  0.70452505  0.97949189    -0.53100
C267        C  0.74952442  0.73418021  0.97394640     0.11000
H268        H  0.69564934  0.68765962  0.10673734     0.15500
H269        H  0.79713132  0.79426475  0.01880407     0.01300
H270        H  0.62657899  0.79707785  0.02330837     0.15800
H271        H  0.68863664  0.68279589  0.94610807     0.15600
C272        C  0.68686254  0.30336460  0.00390491     0.87400
C273        C  0.72896029  0.31273911  0.96320393    -0.52800
C274        C  0.76921157  0.27817230  0.96507318     0.10300
C275        C  0.76772684  0.24296290  0.01595753     0.21300
C276        C  0.67479171  0.24283546  0.00208692    -0.53600
C277        C  0.71708032  0.21099270  0.00912964     0.10400
C278        C  0.71628934  0.31380811  0.05445483    -0.53100
C279        C  0.75644035  0.28039748  0.06441638     0.11000
H280        H  0.72402076  0.33714855  0.92903470     0.15500
H281        H  0.80340904  0.21922672  0.02166447     0.01300
H282        H  0.63567695  0.22703796  0.99539566     0.15800
H283        H  0.70150420  0.34217275  0.08304958     0.15600
C284        C  0.31883752  0.69465716  0.99845723     0.87400
C285        C  0.29298688  0.68718781  0.94544321    -0.52800
C286        C  0.25466311  0.72251107  0.93455091     0.10300
C287        C  0.24232292  0.75945489  0.98297142     0.21300
C288        C  0.33401380  0.75436269  0.00284727    -0.53600
C289        C  0.29409985  0.78863491  0.99366933     0.10400
C290        C  0.27241208  0.68451332  0.03367261    -0.53100
C291        C  0.23550281  0.72239938  0.03196405     0.11000
H292        H  0.30523108  0.65693449  0.91767705     0.15500
H293        H  0.20842852  0.78562709  0.97681418     0.01300
H294        H  0.37368368  0.76782071  0.01111966     0.15800
H295        H  0.27196216  0.65409783  0.06347771     0.15600
C296        C  0.33329739  0.28383046  0.98733173     0.87400
C297        C  0.28949126  0.30035946  0.02384630    -0.52800
C298        C  0.25016327  0.26417838  0.02967774     0.10300
C299        C  0.25167429  0.22097510  0.98462407     0.21300
C300        C  0.34514080  0.22478539  0.99824131    -0.53600
C301        C  0.30266997  0.19120598  0.99532686     0.10400
C302        C  0.30527256  0.28410501  0.93547345    -0.53100
C303        C  0.26336310  0.25118310  0.93203645     0.11000
H304        H  0.29003561  0.33587725  0.04760847     0.15500
H305        H  0.21589829  0.19612480  0.98153819     0.01300
H306        H  0.38442972  0.21112102  0.00615572     0.15800
H307        H  0.31944704  0.30717608  0.90246034     0.15600
Zn308      Zn  0.29131362  0.69107734  0.77233916     1.49700
Zn309      Zn  0.20283448  0.69873553  0.68635696     1.49400
Zn310      Zn  0.20184663  0.78516669  0.78177507     1.49100
Zn311      Zn  0.29435084  0.77947561  0.68837546     1.49500
O312        O  0.24719683  0.73924081  0.73332199    -1.83200
O313        O  0.27553131  0.61452596  0.75182447    -0.73800
O314        O  0.13008313  0.71747122  0.70123238    -0.73700
O315        O  0.21548502  0.76797716  0.86037388    -0.73200
O316        O  0.21015589  0.61881769  0.69404949    -0.73900
O317        O  0.27054293  0.70251558  0.84578913    -0.73500
O318        O  0.12083987  0.77326001  0.76809733    -0.74000
O319        O  0.28091635  0.85424637  0.70437209    -0.73400
O320        O  0.21932744  0.71297613  0.61019233    -0.74200
O321        O  0.22099681  0.86315216  0.76755886    -0.73600
O322        O  0.28823836  0.76624725  0.60815129    -0.74000
O323        O  0.36830782  0.76905249  0.70777682    -0.74000
O324        O  0.37213936  0.70863430  0.76974811    -0.73700
C325        C  0.24294601  0.59201260  0.72016306     0.78000
C326        C  0.10072630  0.74320152  0.73241659     0.78500
C327        C  0.24459996  0.73137037  0.87744072     0.77500
C328        C  0.25237046  0.88290394  0.73379178     0.77900
C329        C  0.25459600  0.73724866  0.58438430     0.79000
C330        C  0.39460440  0.74303181  0.74099119     0.78100
C331        C  0.84531508  0.99579646  0.84125923     0.87400
C332        C  0.80625124  0.95096383  0.85031991    -0.52800
C333        C  0.76449798  0.95027430  0.81659861     0.10300
C334        C  0.76199682  0.99995661  0.78185193     0.21300
C335        C  0.85579793  0.99510018  0.78098700    -0.53600
C336        C  0.81214513  0.99736004  0.75011026     0.10400
C337        C  0.81315784  0.04596965  0.84952780    -0.53100
C338        C  0.77027871  0.04950052  0.81726782     0.11000
H339        H  0.81631942  0.91701443  0.87392056     0.15500
H340        H  0.72533154  0.00237913  0.75850993     0.01300
H341        H  0.89477782  0.99250629  0.76440568     0.15800
H342        H  0.82766690  0.08067889  0.87012555     0.15600
C343        C  0.21260070  0.99292910  0.64739298     0.87400
C344        C  0.23307015  0.94070335  0.66452602    -0.52800
C345        C  0.24660069  0.93753855  0.71587863     0.10300
C346        C  0.23939728  0.99026734  0.74696305     0.21300
C347        C  0.16730620  0.00486240  0.68626264    -0.53600
C348        C  0.18142900  0.00273932  0.73864607     0.10400
C349        C  0.25532134  0.03269070  0.66273075    -0.53100
C350        C  0.26826326  0.03426804  0.71502628     0.11000
H351        H  0.23265900  0.90662636  0.63792161     0.15500
H352        H  0.25216040  0.98859935  0.78880308     0.01300
H353        H  0.12772149  0.01379313  0.67484713     0.15800
H354        H  0.26653204  0.06387441  0.63581686     0.15600
C355        C  0.78387342  0.01569258  0.35615784     0.87400
C356        C  0.75305028  0.96723425  0.33937757    -0.52800
C357        C  0.74782581  0.96012554  0.28643185     0.10300
C358        C  0.76981701  0.00754676  0.25433992     0.21300
C359        C  0.83494377  0.01481415  0.32360102    -0.53600
C360        C  0.82755574  0.00897728  0.27030084     0.10400
C361        C  0.75408249  0.06150319  0.33299730    -0.53100
C362        C  0.74718062  0.05919299  0.27961702     0.11000
H363        H  0.74394391  0.93641443  0.36749640     0.15500
H364        H  0.76183256  0.00318869  0.21146058     0.01300
H365        H  0.87358638  0.01849379  0.34119076     0.15800
H366        H  0.74766625  0.09768294  0.35522033     0.15600
C367        C  0.16482368  0.99240326  0.15971658     0.87400
C368        C  0.20435276  0.94787835  0.15514001    -0.52800
C369        C  0.24400638  0.95061439  0.19153648     0.10300
C370        C  0.24381370  0.00212885  0.22505993     0.21300
C371        C  0.14997343  0.99486013  0.21883557    -0.53600
C372        C  0.19120224  0.99953127  0.25271291     0.10400
C373        C  0.19922178  0.04079684  0.15034221    -0.53100
C374        C  0.23804370  0.04922030  0.18685856     0.11000
H375        H  0.19890517  0.91355765  0.12982832     0.15500
H376        H  0.27855312  0.00541245  0.25133011     0.01300
H377        H  0.10982807  0.99242537  0.23252048     0.15800
H378        H  0.19045125  0.06977378  0.12075422     0.15600
Zn379      Zn  0.70356406  0.79523355  0.30529692     1.49700
Zn380      Zn  0.80503756  0.80884881  0.22242365     1.49400
Zn381      Zn  0.80203331  0.73318517  0.32344535     1.49100
Zn382      Zn  0.73170619  0.70474669  0.22396929     1.49500
O383        O  0.76020634  0.76139939  0.26787771    -1.83200
O384        O  0.71567806  0.87330051  0.29436480    -0.73800
O385        O  0.88600418  0.79348440  0.23302431    -0.73700
O386        O  0.78679459  0.76462330  0.39585569    -0.73200
O387        O  0.78443608  0.88557839  0.24108723    -0.73900
O388        O  0.70239462  0.77782877  0.38485679    -0.73500
O389        O  0.87484757  0.74695036  0.30540047    -0.74000
O390        O  0.74445786  0.63311344  0.25720568    -0.73400
O391        O  0.78583295  0.79391809  0.14462256    -0.74200
O392        O  0.79387773  0.65239897  0.32715236    -0.73600
O393        O  0.77402930  0.70827926  0.15649671    -0.74000
O394        O  0.65070422  0.71515118  0.21023462    -0.74000
O395        O  0.63358248  0.77263172  0.27460280    -0.73700
C396        C  0.74781959  0.90365196  0.27038655     0.78000
C397        C  0.90486131  0.76610483  0.27059005     0.78500
C398        C  0.74124814  0.76889726  0.41507819     0.77500
C399        C  0.77020857  0.61857653  0.29761810     0.77900
C400        C  0.77582068  0.74797436  0.12610653     0.79000
C401        C  0.61804605  0.74342951  0.23610263     0.78100
C402        C  0.97832642  0.66212221  0.70931093     0.87400
C403        C  0.03089498  0.68701359  0.69818596    -0.52800
C404        C  0.04312934  0.73105387  0.72740967     0.10300
C405        C  0.99716016  0.74769376  0.76471478     0.21300
C406        C  0.97948049  0.65447678  0.77037895    -0.53600
C407        C  0.98933263  0.69935203  0.79960830     0.10400
C408        C  0.93990613  0.70546256  0.69875179    -0.53100
C409        C  0.94550837  0.74883672  0.73056952     0.11000
H410        H  0.05980097  0.66632902  0.67517777     0.15500
H411        H  0.00548910  0.78494966  0.78663669     0.01300
H412        H  0.97297511  0.61659781  0.78872830     0.15800
H413        H  0.90440924  0.69721642  0.67602098     0.15600
C414        C  0.01626008  0.67272385  0.29137576     0.87400
C415        C  0.96745798  0.70308741  0.30306251    -0.52800
C416        C  0.96046162  0.74745140  0.27360235     0.10300
C417        C  0.00762510  0.75766108  0.23520507     0.21300
C418        C  0.01283463  0.66289807  0.23057929    -0.53600
C419        C  0.00861573  0.70739332  0.20091915     0.10400
C420        C  0.05965425  0.71213574  0.30118588    -0.53100
C421        C  0.05944157  0.75441995  0.26896940     0.11000
H422        H  0.93706081  0.68599804  0.32728067     0.15500
H423        H  0.00379029  0.79472056  0.21282843     0.01300
H424        H  0.01318540  0.62389813  0.21265070     0.15800
H425        H  0.09388737  0.70141713  0.32439339     0.15600
C426        C  0.02527525  0.27759874  0.84486390     0.87400
C427        C  0.07211085  0.24929095  0.82201601    -0.52800
C428        C  0.06998654  0.23988473  0.76875495     0.10300
C429        C  0.01795193  0.25922542  0.74297062     0.21300
C430        C  0.02166498  0.32741831  0.81065572    -0.53600
C431        C  0.01790799  0.31772500  0.75754735     0.10400
C432        C  0.97895354  0.24284209  0.82876444    -0.53100
C433        C  0.97126137  0.23617521  0.77569247     0.11000
H434        H  0.10854417  0.24566960  0.84336593     0.15500
H435        H  0.01528270  0.25075553  0.69995881     0.01300
H436        H  0.02189934  0.36710011  0.82718153     0.15800
H437        H  0.94869384  0.23310590  0.85721481     0.15600
C438        C  0.01242434  0.32056885  0.33425008     0.87400
C439        C  0.05419211  0.27870537  0.33241531    -0.52800
C440        C  0.05429153  0.24866893  0.28734175     0.10300
C441        C  0.00136536  0.25401622  0.25566490     0.21300
C442        C  0.01035695  0.34580122  0.27851226    -0.53600
C443        C  0.00383969  0.31075086  0.23794190     0.10400
C444        C  0.96406700  0.28617557  0.33856952    -0.53100
C445        C  0.95423514  0.25423209  0.29565779     0.11000
H446        H  0.08555338  0.27710335  0.36125592     0.15500
H447        H  0.99684686  0.22466681  0.22306876     0.01300
H448        H  0.01409574  0.38790059  0.27200657     0.15800
H449        H  0.93689123  0.29009349  0.37104510     0.15600
Zn450      Zn  0.22133198  0.28684504  0.29198938     1.49700
Zn451      Zn  0.28570311  0.29900567  0.19126470     1.49400
Zn452      Zn  0.30353848  0.19648651  0.26020704     1.49100
Zn453      Zn  0.19420435  0.21346687  0.18738564     1.49500
O454        O  0.25080059  0.24732220  0.23341032    -1.83200
O455        O  0.23060920  0.36775673  0.28337447    -0.73800
O456        O  0.36501232  0.29999981  0.20294739    -0.73700
O457        O  0.29485204  0.19165812  0.34211253    -0.73200
O458        O  0.26017311  0.37420368  0.20166930    -0.73900
O459        O  0.24835049  0.26196945  0.36491092    -0.73500
O460        O  0.37946823  0.22469806  0.24443551    -0.74000
O461        O  0.21196050  0.13777036  0.18874720    -0.73400
O462        O  0.26993831  0.27975166  0.11910711    -0.74200
O463        O  0.28790566  0.12119679  0.22842017    -0.73600
O464        O  0.19988094  0.23012691  0.10571484    -0.74000
O465        O  0.11830242  0.22185555  0.21957240    -0.74000
O466        O  0.14540970  0.26775998  0.28960857    -0.73700
C467        C  0.24515199  0.39595099  0.24434709     0.78000
C468        C  0.39641746  0.26803634  0.22469213     0.78500
C469        C  0.27334775  0.22058825  0.37761909     0.77500
C470        C  0.24744221  0.10560899  0.20231025     0.77900
C471        C  0.23824570  0.25667485  0.08742473     0.79000
C472        C  0.10854492  0.24457418  0.26379588     0.80500
C473        C  0.05540613  0.28089448  0.99509218     0.13600
C474        C  0.01635890  0.31474634  0.01352469     0.00500
C475        C  0.98076273  0.33570916  0.97742442     0.15500
C476        C  0.98424690  0.32319778  0.92376542     0.24900
C477        C  0.02441204  0.29036475  0.90426089    -0.41400
C478        C  0.05926822  0.26829221  0.94146349     0.32000
C479        C  0.01013752  0.32373541  0.07096285     0.00600
F480        F  0.94205354  0.36795896  0.99421590    -0.13700
F481        F  0.09462578  0.23122983  0.92805931    -0.14200
C482        C  0.05262110  0.34163769  0.10211259     0.15500
C483        C  0.04923602  0.34162325  0.15718917     0.24900
C484        C  0.00321428  0.32423799  0.18161723    -0.41300
C485        C  0.95959951  0.31022662  0.15054207     0.31900
C486        C  0.96306352  0.30949170  0.09566112     0.13600
F487        F  0.09813848  0.35676227  0.07918493    -0.13700
F488        F  0.91417672  0.29508785  0.17336029    -0.14200
F489        F  0.09201859  0.35481719  0.18660395    -0.16500
F490        F  0.92161301  0.29116524  0.06690921    -0.15100
F491        F  0.08823521  0.25730983  0.02963373    -0.15100
F492        F  0.94716210  0.34238598  0.89083418    -0.16500
C493        C  0.07635577  0.44086628  0.39318720     0.13600
C494        C  0.03280644  0.47341777  0.39505607     0.00500
C495        C  0.98282460  0.45053346  0.39721322     0.15500
C496        C  0.97614582  0.39681080  0.38724915     0.24900
C497        C  0.01969782  0.36480107  0.37496212    -0.41400
C498        C  0.07029043  0.38744719  0.38197988     0.32000
C499        C  0.03811753  0.52797860  0.37663828     0.00600
F500        F  0.93966235  0.48114153  0.39935728    -0.13700
F501        F  0.11448210  0.36112272  0.36967883    -0.14200
C502        C  0.06396977  0.53714506  0.32867903     0.15500
C503        C  0.05963760  0.58517075  0.30395063     0.24900
C504        C  0.02529870  0.62355867  0.32359702    -0.41300
C505        C  0.00510243  0.61696778  0.37513144     0.31900
C506        C  0.01130380  0.56929424  0.40119167     0.13600
F507        F  0.09055357  0.49843642  0.30328191    -0.13700
F508        F  0.98050699  0.65637553  0.40123412    -0.14200
F509        F  0.08846006  0.59334381  0.25988758    -0.16500
F510        F  0.98978162  0.56287160  0.44960509    -0.15100
F511        F  0.12525932  0.46226908  0.39397391    -0.15100
F512        F  0.92629707  0.37927975  0.38035495    -0.16500
C513        C  0.03652743  0.44940323  0.69441876     0.13600
C514        C  0.99080252  0.45211332  0.66357673     0.00500
C515        C  0.95987191  0.40680662  0.65565983     0.15500
C516        C  0.97156342  0.36068778  0.68263897     0.24900
C517        C  0.01347013  0.36027117  0.71878131    -0.41400
C518        C  0.04760526  0.40382398  0.72211429     0.32000
C519        C  0.96963649  0.50453204  0.65316421     0.00600
F520        F  0.91581951  0.40883018  0.62577698    -0.13700
F521        F  0.08976618  0.40341364  0.75490948    -0.14200
C522        C  0.99836205  0.54049987  0.62318724     0.15500
C523        C  0.99488666  0.59427683  0.63446347     0.24900
C524        C  0.96544206  0.61152968  0.67845337    -0.41300
C525        C  0.92728638  0.57677865  0.69836104     0.31900
C526        C  0.93004939  0.52314999  0.68652315     0.13600
F527        F  0.03368824  0.52324810  0.58727306    -0.13700
F528        F  0.89181847  0.59352697  0.73439444    -0.14200
F529        F  0.02136952  0.62851349  0.60345025    -0.16500
F530        F  0.89966720  0.48899143  0.71392673    -0.15100
F531        F  0.06705036  0.49287723  0.70273195    -0.15100
F532        F  0.93898294  0.31846849  0.67726035    -0.16500
C533        C  0.01960028  0.66202124  0.94220797     0.13600
C534        C  0.99736843  0.70378506  0.97092777     0.00500
C535        C  0.97286678  0.74436501  0.94323061     0.15500
C536        C  0.97030851  0.74310881  0.88786777     0.24900
C537        C  0.99219449  0.70101250  0.85879754    -0.41400
C538        C  0.01727132  0.66070785  0.88683864     0.32000
C539        C  0.99982272  0.70502823  0.02972713     0.00600
F540        F  0.95042419  0.78483431  0.96997620    -0.13700
F541        F  0.04121109  0.62079929  0.86066568    -0.14200
C542        C  0.02981327  0.74364666  0.05659017     0.15500
C543        C  0.03269035  0.74439984  0.11194447     0.24900
C544        C  0.00513989  0.70679785  0.14181088    -0.41300
C545        C  0.97454447  0.66852140  0.11465050     0.31900
C546        C  0.97225778  0.66748957  0.05928051     0.13600
F547        F  0.05739693  0.77998634  0.02905036    -0.13700
F548        F  0.94555194  0.63287134  0.14162282    -0.14200
F549        F  0.06397221  0.78093260  0.13607781    -0.16500
F550        F  0.94225343  0.63029549  0.03441231    -0.15100
F551        F  0.04462212  0.62292999  0.96787352    -0.15100
F552        F  0.94513201  0.78260520  0.86307820    -0.16500
C553        C  0.95385715  0.95824432  0.21269677     0.13600
C554        C  0.95382746  0.98091924  0.16228780     0.00500
C555        C  0.91051362  0.01045973  0.14635263     0.15500
C556        C  0.86951022  0.01996815  0.18142926     0.24900
C557        C  0.87061328  0.99895991  0.23261191    -0.41400
C558        C  0.91247740  0.96657555  0.24714237     0.32000
C559        C  0.00338737  0.98242097  0.13244758     0.00600
F560        F  0.90915594  0.03217526  0.09768294    -0.13700
F561        F  0.91382554  0.94304462  0.29494985    -0.14200
C562        C  0.03234381  0.93638810  0.12539932     0.15500
C563        C  0.08694982  0.93899269  0.12407862     0.24900
C564        C  0.11363855  0.98830258  0.12797167    -0.41300
C565        C  0.08269543  0.03430015  0.12395636     0.31900
C566        C  0.02839532  0.03117654  0.12621035     0.13600
F567        F  0.00826818  0.88855371  0.12816982    -0.13700
F568        F  0.10379557  0.08337260  0.12780172    -0.14200
F569        F  0.11254381  0.89270773  0.12726826    -0.16500
F570        F  0.00134182  0.07664384  0.13185859    -0.15100
F571        F  0.99568236  0.93076421  0.23019545    -0.15100
F572        F  0.83033106  0.05208705  0.16613346    -0.16500
C573        C  0.22256247  0.02224636  0.39586840     0.13600
C574        C  0.19040652  0.98472127  0.42019927     0.00500
C575        C  0.15607392  0.95370047  0.38933592     0.15500
C576        C  0.15459746  0.95962033  0.33468340     0.24900
C577        C  0.18690329  0.99743215  0.31051473    -0.41400
C578        C  0.21995537  0.02941934  0.34179882     0.32000
C579        C  0.19349262  0.97905021  0.47780085     0.00600
F580        F  0.12607349  0.91590475  0.41174615    -0.13700
F581        F  0.25023188  0.06754384  0.32013413    -0.14200
C582        C  0.14872716  0.98325049  0.50922694     0.15500
C583        C  0.15335237  0.98709063  0.56408883     0.24900
C584        C  0.20330400  0.98958717  0.58813346    -0.41300
C585        C  0.24759667  0.98107576  0.55598653     0.31900
C586        C  0.24249187  0.97456667  0.50192644     0.13600
F587        F  0.10049386  0.98544975  0.48683961    -0.13700
F588        F  0.29629325  0.97745039  0.57727627    -0.14200
F589        F  0.10870923  0.98688657  0.59243027    -0.16500
F590        F  0.28585710  0.96467156  0.47283692    -0.15100
F591        F  0.25746070  0.05144110  0.42453992    -0.15100
F592        F  0.12390518  0.92640918  0.30539420    -0.16500
C593        C  0.83890258  0.98254436  0.49208763     0.13600
C594        C  0.80584789  0.01090048  0.52524295     0.00500
C595        C  0.76439680  0.03945741  0.50426346     0.15500
C596        C  0.75661929  0.04090611  0.45001033     0.24900
C597        C  0.79197277  0.01561315  0.41552387    -0.41400
C598        C  0.83136603  0.98372722  0.43773970     0.32000
C599        C  0.81007625  0.00523723  0.58214239     0.00600
F600        F  0.73012958  0.06425518  0.53668169    -0.13700
F601        F  0.86129585  0.95181381  0.40726964    -0.14200
C602        C  0.84956330  0.03159420  0.61063907     0.15500
C603        C  0.85070823  0.02875926  0.66549165     0.24900
C604        C  0.81275474  0.99860615  0.69204033    -0.41300
C605        C  0.77367181  0.97169058  0.66266652     0.31900
C606        C  0.77268467  0.97479761  0.60814335     0.13600
F607        F  0.88591685  0.06118408  0.58541631    -0.13700
F608        F  0.73590067  0.94253120  0.68608753    -0.14200
F609        F  0.88708312  0.05771218  0.69255008    -0.16500
F610        F  0.73480166  0.94841999  0.58050601    -0.15100
F611        F  0.87679301  0.95164766  0.51259624    -0.15100
F612        F  0.71244211  0.06398558  0.43220474    -0.16500
C613        C  0.06211133  0.04510531  0.81508082     0.13600
C614        C  0.05899993  0.00563570  0.85349643     0.00500
C615        C  0.10125727  0.97153844  0.86003608     0.15500
C616        C  0.14338322  0.97321339  0.82509265     0.24900
C617        C  0.14347007  0.00861982  0.78260566    -0.41400
C618        C  0.10399745  0.04661571  0.78001185     0.32000
C619        C  0.00721040  0.99277820  0.87589552     0.00600
F620        F  0.09967714  0.93383705  0.89756836    -0.13700
F621        F  0.10462239  0.08378638  0.74195549    -0.14200
C622        C  0.98187633  0.94651388  0.85828947     0.15500
C623        C  0.92749701  0.94425947  0.85595037     0.24900
C624        C  0.89765959  0.98889675  0.87001217    -0.41300
C625        C  0.92305393  0.02947879  0.89947806     0.31900
C626        C  0.97778943  0.03173933  0.90141572     0.13600
F627        F  0.00934488  0.90698177  0.83527032    -0.13700
F628        F  0.89637491  0.06862505  0.92361343    -0.14200
F629        F  0.90484995  0.90209010  0.83106610    -0.16500
F630        F  0.00204012  0.07462470  0.92320692    -0.15100
F631        F  0.02193887  0.07888584  0.80790598    -0.15100
F632        F  0.18157702  0.93715466  0.83055176    -0.16500
C633        C  0.26460869  0.04679037  0.01916475     0.13600
C634        C  0.30695385  0.01925554  0.99777631     0.00500
C635        C  0.34861945  0.04825631  0.97621768     0.15500
C636        C  0.34778812  0.10377819  0.97585974     0.24900
C637        C  0.30557620  0.13182150  0.99819112    -0.41400
C638        C  0.26429825  0.10219777  0.02039815     0.32000
C639        C  0.30602438  0.96030570  0.99590066     0.00600
F640        F  0.38933932  0.02267817  0.95371764    -0.13700
F641        F  0.22359013  0.12669385  0.04395673    -0.14200
C642        C  0.27661411  0.93350365  0.95694712     0.15500
C643        C  0.27344596  0.87822757  0.95597553     0.24900
C644        C  0.29956559  0.84792800  0.99412114    -0.41300
C645        C  0.32940089  0.87503857  0.03311920     0.31900
C646        C  0.33247695  0.93056818  0.03397680     0.13600
F647        F  0.25077182  0.96109667  0.91961247    -0.13700
F648        F  0.35405649  0.84802856  0.07166834    -0.14200
F649        F  0.24542858  0.85452073  0.91675220    -0.16500
F650        F  0.36036546  0.95542651  0.07277252    -0.15100
F651        F  0.22293270  0.01964341  0.03810094    -0.15100
F652        F  0.38724212  0.12974348  0.95133362    -0.16500
C653        C  0.57136140  0.38976996  0.96007677     0.13600
C654        C  0.53451310  0.37389467  0.99726567     0.00500
C655        C  0.55019463  0.34387418  0.04047626     0.15500
C656        C  0.60033286  0.32450653  0.04290384     0.24900
C657        C  0.63651471  0.33468939  0.00229624    -0.41400
C658        C  0.62200573  0.37011276  0.96199182     0.32000
C659        C  0.47911673  0.37143600  0.98314364     0.00600
F660        F  0.51499987  0.32659685  0.07653685    -0.13700
F661        F  0.65392498  0.38368956  0.92204997    -0.14200
C662        C  0.46514876  0.33607089  0.94250430     0.15500
C663        C  0.41815937  0.30869708  0.94472880     0.24900
C664        C  0.38260939  0.31785437  0.98625764    -0.41300
C665        C  0.39564860  0.35702761  0.02482565     0.31900
C666        C  0.44242349  0.38521026  0.02138981     0.13600
F667        F  0.50021680  0.32191233  0.90493261    -0.13700
F668        F  0.36743666  0.36517922  0.06911437    -0.14200
F669        F  0.40933962  0.26995970  0.90818630    -0.16500
F670        F  0.45572593  0.41986694  0.06059832    -0.15100
F671        F  0.55645664  0.41931739  0.91840663    -0.15100
F672        F  0.61195573  0.29137299  0.08295012    -0.16500
C673        C  0.45353880  0.63903332  0.97935293     0.13600
C674        C  0.46892887  0.63085225  0.03176800     0.00500
C675        C  0.43153952  0.63123537  0.07172772     0.15500
C676        C  0.38130300  0.64855011  0.06100194     0.24900
C677        C  0.36616685  0.66091416  0.00864728    -0.41400
C678        C  0.40317991  0.65454588  0.96796807     0.32000
C679        C  0.52402742  0.64025049  0.04505349     0.00600
F680        F  0.44585362  0.62268453  0.12260889    -0.13700
F681        F  0.39412199  0.67135064  0.91816234    -0.14200
C682        C  0.53721875  0.68451454  0.07631784     0.15500
C683        C  0.58637705  0.70722274  0.07226502     0.24900
C684        C  0.62246491  0.68778048  0.03539260    -0.41300
C685        C  0.61211484  0.63832487  0.01120489     0.31900
C686        C  0.56273328  0.61529418  0.01546691     0.13600
F687        F  0.50088971  0.71003459  0.10563326    -0.13700
F688        F  0.64894012  0.61200162  0.98359707    -0.14200
F689        F  0.59755657  0.75055438  0.10205675    -0.16500
F690        F  0.55037417  0.57214532  0.98571802    -0.15100
F691        F  0.48922230  0.64114425  0.93987494    -0.15100
F692        F  0.35101141  0.66001720  0.10329493    -0.16500
C693        C  0.67089344  0.95144380  0.99219850     0.13600
C694        C  0.71185507  0.98070723  0.01578745     0.00500
C695        C  0.75279592  0.95334605  0.04005442     0.15500
C696        C  0.75240376  0.89802605  0.04158574     0.24900
C697        C  0.71134428  0.86819903  0.01799865    -0.41400
C698        C  0.67093070  0.89608945  0.99252649     0.32000
C699        C  0.71259574  0.03961139  0.01388356     0.00600
F700        F  0.79285613  0.98037009  0.06352585    -0.13700
F701        F  0.63203612  0.87012468  0.96612909    -0.14200
C702        C  0.67236846  0.06941228  0.03684626     0.15500
C703        C  0.67351138  0.12479095  0.03512899     0.24900
C704        C  0.71465430  0.15176822  0.00971796    -0.41300
C705        C  0.75454594  0.12158105  0.98622049     0.31900
C706        C  0.75369764  0.06636468  0.98877793     0.13600
F707        F  0.63260419  0.04484806  0.06229844    -0.13700
F708        F  0.79394671  0.14521585  0.95943893    -0.14200
F709        F  0.63523416  0.15195390  0.06004054    -0.16500
F710        F  0.79286366  0.03873319  0.96597786    -0.15100
F711        F  0.63128199  0.97655936  0.96745225    -0.15100
F712        F  0.79173535  0.87419990  0.06781644    -0.16500
C713        C  0.45467785  0.97669358  0.68412996     0.13600
C714        C  0.50187160  0.00497504  0.68536403     0.00500
C715        C  0.54869688  0.97930586  0.69575621     0.15500
C716        C  0.54787928  0.92649816  0.70911355     0.24900
C717        C  0.49963463  0.89942528  0.71611828    -0.41400
C718        C  0.45343864  0.92427831  0.69895654     0.32000
C719        C  0.50058197  0.06212996  0.68844340     0.00600
F720        F  0.59506136  0.00590383  0.69529109    -0.13700
F721        F  0.40726910  0.89780751  0.69430591    -0.14200
C722        C  0.47441676  0.08455600  0.73127179     0.15500
C723        C  0.47642752  0.13815868  0.73982346     0.24900
C724        C  0.50478517  0.17074987  0.70545192    -0.41300
C725        C  0.53102434  0.14830900  0.66211517     0.31900
C726        C  0.52901799  0.09390479  0.65372402     0.13600
F727        F  0.44881171  0.05399079  0.76667279    -0.13700
F728        F  0.56070830  0.17847318  0.62978358    -0.14200
F729        F  0.45082412  0.15731054  0.78252283    -0.16500
F730        F  0.55562225  0.07215688  0.61282547    -0.15100
F731        F  0.40937463  0.00086279  0.67097738    -0.15100
F732        F  0.59458777  0.90191501  0.71288977    -0.16500
C733        C  0.44508797  0.35671862  0.57645154     0.13600
C734        C  0.48995104  0.36324368  0.54621537     0.00500
C735        C  0.53755908  0.37623660  0.57066876     0.15500
C736        C  0.54222550  0.37377451  0.62514227     0.24900
C737        C  0.49858202  0.35897756  0.65611680    -0.41400
C738        C  0.44885489  0.35607254  0.63093124     0.32000
C739        C  0.48892376  0.34731097  0.49078990     0.00600
F740        F  0.58069661  0.38664175  0.54132687    -0.13700
F741        F  0.40506464  0.34127112  0.65708584    -0.14200
C742        C  0.45294600  0.36897854  0.45574510     0.15500
C743        C  0.45135375  0.35198751  0.40339235     0.24900
C744        C  0.48626387  0.31261158  0.38531183    -0.41300
C745        C  0.52310144  0.29227211  0.42121317     0.31900
C746        C  0.52311886  0.30810453  0.47355166     0.13600
F747        F  0.42108003  0.40853069  0.47162458    -0.13700
F748        F  0.56076715  0.25828858  0.40537557    -0.14200
F749        F  0.41968939  0.37880632  0.37055181    -0.16500
F750        F  0.55683654  0.28497358  0.50755708    -0.15100
F751        F  0.39864037  0.34379363  0.55333129    -0.15100
F752        F  0.59097097  0.37972416  0.64546568    -0.16500
C753        C  0.46225652  0.71341849  0.54106443     0.13600
C754        C  0.50706030  0.72639926  0.51170333     0.00500
C755        C  0.55453837  0.73607157  0.53856137     0.15500
C756        C  0.55596870  0.73795648  0.59366576     0.24900
C757        C  0.50993454  0.73099053  0.62287905    -0.41400
C758        C  0.46372996  0.71566671  0.59637592     0.32000
C759        C  0.50365197  0.73583983  0.45400405     0.00600
F760        F  0.59832976  0.74949393  0.51156306    -0.13700
F761        F  0.41866915  0.70901519  0.62362536    -0.14200
C762        C  0.47044831  0.77496640  0.43429306     0.15500
C763        C  0.47230285  0.78889952  0.38098874     0.24900
C764        C  0.50688294  0.76353929  0.34621505    -0.41300
C765        C  0.53820192  0.72266373  0.36548571     0.31900
C766        C  0.53724115  0.70969264  0.41903206     0.13600
F767        F  0.43811785  0.80165355  0.46721503    -0.13700
F768        F  0.57156842  0.69674878  0.33316070    -0.14200
F769        F  0.44033778  0.82732270  0.36334510    -0.16500
F770        F  0.57024751  0.67252713  0.43728537    -0.15100
F771        F  0.41625769  0.70225255  0.51616781    -0.15100
F772        F  0.60076350  0.75386945  0.61835693    -0.16500
C773        C  0.56520947  0.10219791  0.20081104     0.13600
C774        C  0.53834002  0.06079936  0.22418166     0.00500
C775        C  0.50070719  0.07031010  0.26300877     0.15500
C776        C  0.48949135  0.12162788  0.27828514     0.24900
C777        C  0.51614832  0.16385795  0.25489825    -0.41400
C778        C  0.55398919  0.15361622  0.21560684     0.32000
C779        C  0.54754251  0.00701446  0.20754413     0.00600
F780        F  0.47435022  0.02967728  0.28543520    -0.13700
F781        F  0.58066816  0.19273293  0.19134031    -0.14200
C782        C  0.58245411  0.97668671  0.23624628     0.15500
C783        C  0.57801430  0.92227020  0.23384140     0.24900
C784        C  0.53715416  0.89808608  0.20422077    -0.41300
C785        C  0.50928087  0.92893333  0.16782640     0.31900
C786        C  0.51374969  0.98348296  0.17055652     0.13600
F787        F  0.61698498  0.99974644  0.27049957    -0.13700
F788        F  0.47798207  0.90750844  0.12981098    -0.14200
F789        F  0.61013557  0.89342143  0.26469868    -0.16500
F790        F  0.48223570  0.01348084  0.14015870    -0.15100
F791        F  0.60195387  0.09272821  0.16349598    -0.15100
F792        F  0.45112542  0.12993410  0.31416794    -0.16500
C793        C  0.73305274  0.53030392  0.10903588     0.13600
C794        C  0.69878264  0.49298673  0.08635440     0.00500
C795        C  0.66459378  0.46458269  0.11895063     0.15500
C796        C  0.66677802  0.47163089  0.17385611     0.24900
C797        C  0.70373383  0.50672797  0.19676816    -0.41400
C798        C  0.73637607  0.53629836  0.16339810     0.32000
C799        C  0.69952613  0.48522747  0.02856632     0.00600
F800        F  0.63038581  0.42889323  0.09786325    -0.13700
F801        F  0.77253814  0.57079747  0.18275678    -0.14200
C802        C  0.74704158  0.47620717  0.00301949     0.15500
C803        C  0.75063448  0.48039546  0.94850027     0.24900
C804        C  0.70618237  0.49178566  0.91729757    -0.41300
C805        C  0.65806041  0.49978805  0.94368125     0.31900
C806        C  0.65487153  0.49488958  0.99851957     0.13600
F807        F  0.79068042  0.46495437  0.03129339    -0.13700
F808        F  0.61452715  0.51584678  0.91841979    -0.14200
F809        F  0.79843603  0.47437968  0.92621874    -0.16500
F810        F  0.60845621  0.50224093  0.02289098    -0.15100
F811        F  0.76394058  0.56101045  0.07828940    -0.15100
F812        F  0.63495533  0.44187670  0.20445125    -0.16500
C813        C  0.49045782  0.46797604  0.31035736     0.13600
C814        C  0.48756497  0.48791372  0.36221315     0.00500
C815        C  0.43954639  0.50311184  0.38264512     0.15500
C816        C  0.39498264  0.50040274  0.35079970     0.24900
C817        C  0.39798140  0.48458728  0.29687270    -0.41400
C818        C  0.44623330  0.46558892  0.27815896     0.32000
C819        C  0.53632798  0.49661928  0.39189100     0.00600
F820        F  0.43601676  0.52129161  0.43308990    -0.13700
F821        F  0.45165030  0.44317911  0.22983956    -0.14200
C822        C  0.55864150  0.54695103  0.39177500     0.15500
C823        C  0.61289183  0.55286273  0.38930604     0.24900
C824        C  0.64528710  0.50780754  0.38562357    -0.41300
C825        C  0.62151760  0.45801247  0.39438110     0.31900
C826        C  0.56808866  0.45347611  0.40049375     0.13600
F827        F  0.52794757  0.58938971  0.38363254    -0.13700
F828        F  0.64664671  0.41193938  0.38610728    -0.14200
F829        F  0.63161125  0.60190011  0.37964380    -0.16500
F830        F  0.54716209  0.40475715  0.40170674    -0.15100
F831        F  0.53694008  0.45229737  0.29010288    -0.15100
F832        F  0.34876503  0.51469780  0.37247546    -0.16500
C833        C  0.47018305  0.56813976  0.67312066     0.13600
C834        C  0.49651430  0.53300456  0.64020688     0.00500
C835        C  0.46706373  0.49907052  0.60753561     0.15500
C836        C  0.41445018  0.48884791  0.61920217     0.24900
C837        C  0.39135320  0.51466760  0.66254110    -0.41400
C838        C  0.41772640  0.55934344  0.68412326     0.32000
C839        C  0.54669910  0.51480782  0.66111728     0.00600
F840        F  0.49018461  0.47447700  0.56638358    -0.13700
F841        F  0.39447514  0.59106709  0.72041588    -0.14200
C842        C  0.54447107  0.47958080  0.70328220     0.15500
C843        C  0.58775079  0.47220437  0.73537878     0.24900
C844        C  0.63426173  0.50082497  0.72687059    -0.41300
C845        C  0.63786741  0.53295909  0.68184155     0.31900
C846        C  0.59380873  0.54056918  0.64969356     0.13600
F847        F  0.49836646  0.45656968  0.71691571    -0.13700
F848        F  0.68231327  0.56016629  0.67104075    -0.14200
F849        F  0.58293446  0.43896750  0.77664928    -0.16500
F850        F  0.59565111  0.57622867  0.61034788    -0.15100
F851        F  0.49759679  0.60367977  0.70279994    -0.15100
F852        F  0.38669979  0.45500793  0.58804154    -0.16500
C853        C  0.33535864  0.50735271  0.02890103     0.13600
C854        C  0.29060985  0.48680539  0.00349173     0.00500
C855        C  0.25005226  0.46608011  0.03453128     0.15500
C856        C  0.25467388  0.46519986  0.08996575     0.24900
C857        C  0.29985432  0.48559858  0.11569264    -0.41400
C858        C  0.33984806  0.50712166  0.08404504     0.32000
C859        C  0.28822470  0.48514164  0.94457477     0.00600
F860        F  0.20649316  0.44541693  0.01109150    -0.13700
F861        F  0.38310045  0.52938015  0.10633098    -0.14200
C862        C  0.32268843  0.45273116  0.91634021     0.15500
C863        C  0.32484954  0.45389928  0.86119898     0.24900
C864        C  0.29261692  0.48792895  0.83265329    -0.41300
C865        C  0.25661162  0.51925226  0.86063578     0.31900
C866        C  0.25465157  0.51808044  0.91614296     0.13600
F867        F  0.35500595  0.42022882  0.94240464    -0.13700
F868        F  0.22473863  0.55254680  0.83451885    -0.14200
F869        F  0.35823291  0.42122693  0.83563996    -0.16500
F870        F  0.22146010  0.55057439  0.94215741    -0.15100
F871        F  0.37485938  0.52820128  0.00000942    -0.15100
F872        F  0.21551640  0.44276775  0.11809014    -0.16500
C873        C  0.05113848  0.76901345  0.54826399     0.13600
C874        C  0.02970392  0.80149821  0.50939575     0.00500
C875        C  0.06147071  0.81815464  0.46739751     0.15500
C876        C  0.11146351  0.79713989  0.46080548     0.24900
C877        C  0.13025381  0.76020113  0.49669461    -0.41400
C878        C  0.10084098  0.74827395  0.54171999     0.32000
C879        C  0.97212162  0.80299455  0.50440761     0.00600
F880        F  0.04154987  0.84970895  0.42956312    -0.13700
F881        F  0.11816024  0.71255528  0.57695772    -0.14200
C882        C  0.94037949  0.81735575  0.54741282     0.15500
C883        C  0.88777605  0.80125097  0.54862908     0.24900
C884        C  0.86706761  0.76994502  0.50734722    -0.41300
C885        C  0.89773695  0.75955670  0.46270588     0.31900
C886        C  0.94929504  0.77684208  0.46076865     0.13600
F887        F  0.96143703  0.84298661  0.58991235    -0.13700
F888        F  0.87936981  0.72834901  0.42276592    -0.14200
F889        F  0.85895031  0.81152313  0.59226361    -0.16500
F890        F  0.97860975  0.76213682  0.41869717    -0.15100
F891        F  0.02151925  0.75154007  0.58891519    -0.15100
F892        F  0.13881459  0.80806755  0.41646293    -0.16500
C893        C  0.22700675  0.49607734  0.45135120     0.13600
C894        C  0.20517346  0.47855532  0.49865368     0.00500
C895        C  0.18904151  0.51480833  0.53665762     0.15500
C896        C  0.19575093  0.56849912  0.52811534     0.24900
C897        C  0.21885442  0.58735674  0.48100216    -0.41400
C898        C  0.23332926  0.54982509  0.44203520     0.32000
C899        C  0.20336138  0.42208885  0.50933823     0.00600
F900        F  0.16811041  0.49808514  0.58272094    -0.13700
F901        F  0.25359175  0.56338284  0.39491601    -0.14200
C902        C  0.24869579  0.39733202  0.52612928     0.15500
C903        C  0.25066397  0.34274383  0.52701667     0.24900
C904        C  0.20909864  0.31193159  0.50557169    -0.41300
C905        C  0.16164638  0.33730015  0.49376389     0.31900
C906        C  0.15842045  0.39207042  0.49839599     0.13600
F907        F  0.29136150  0.42621118  0.54092751    -0.13700
F908        F  0.11912280  0.31018581  0.47569294    -0.14200
F909        F  0.29329369  0.32079435  0.54934419    -0.16500
F910        F  0.11184801  0.41593238  0.49173161    -0.15100
F911        F  0.24273832  0.46074188  0.41412486    -0.15100
F912        F  0.18017067  0.60238106  0.56669204    -0.16500
C913        C  0.82629679  0.41723616  0.51840469     0.13600
C914        C  0.77779188  0.43851954  0.50457870     0.00500
C915        C  0.73617928  0.40507420  0.49095667     0.15500
C916        C  0.74320445  0.35123857  0.48797967     0.24900
C917        C  0.79093766  0.32885992  0.50406112    -0.41400
C918        C  0.83253042  0.36264572  0.51951047     0.32000
C919        C  0.77036777  0.49559630  0.50236263     0.00600
F920        F  0.68853935  0.42474076  0.47934235    -0.13700
F921        F  0.87861246  0.34326505  0.53701019    -0.14200
C922        C  0.80103058  0.52602572  0.46847138     0.15500
C923        C  0.79431383  0.58029837  0.46659524     0.24900
C924        C  0.75717538  0.60506220  0.49938488    -0.41300
C925        C  0.72126379  0.57293836  0.52658254     0.31900
C926        C  0.72943926  0.51913970  0.53029461     0.13600
F927        F  0.83697831  0.50302505  0.43668821    -0.13700
F928        F  0.67754489  0.59309481  0.54863188    -0.14200
F929        F  0.82381665  0.60834852  0.43228482    -0.16500
F930        F  0.69760350  0.49012113  0.56165259    -0.15100
F931        F  0.86697930  0.44932431  0.53237132    -0.15100
F932        F  0.70326466  0.32199999  0.46731863    -0.16500
C933        C  0.97454418  0.15150566  0.53498854     0.13600
C934        C  0.98765874  0.11053477  0.49988558     0.00500
C935        C  0.94915617  0.09013411  0.46546349     0.15500
C936        C  0.89992534  0.11342062  0.46283445     0.24900
C937        C  0.88674259  0.15501273  0.49777506    -0.41400
C938        C  0.92460158  0.17193376  0.53520926     0.32000
C939        C  0.04344935  0.09758907  0.49306999     0.00600
F940        F  0.95995934  0.04901881  0.43263711    -0.13700
F941        F  0.91396437  0.21049402  0.57114315    -0.14200
C942        C  0.07571369  0.09349094  0.53755542     0.15500
C943        C  0.12826935  0.10823296  0.53489085     0.24900
C944        C  0.15126430  0.12245409  0.48614191    -0.41300
C945        C  0.11933562  0.11806434  0.44019587     0.31900
C946        C  0.06644125  0.10557700  0.44377511     0.13600
F947        F  0.05457528  0.08284091  0.58539610    -0.13700
F948        F  0.13576617  0.13435690  0.39230852    -0.14200
F949        F  0.15368657  0.11483761  0.58156683    -0.16500
F950        F  0.03649999  0.11022956  0.39970143    -0.15100
F951        F  0.01101505  0.17479604  0.56696050    -0.15100
F952        F  0.86686563  0.09543267  0.42507423    -0.16500
loop_ 
_geom_bond_atom_site_label_1 
_geom_bond_atom_site_label_2 
_geom_bond_distance 
_geom_bond_site_symmetry_2 
_ccdc_geom_bond_type 
Zn1           O5   1.973       .  S
Zn1           O6   2.023       .  S
Zn1          O10   2.065       .  S
Zn1          O17   2.060       .  S
Zn2           O5   2.000       .  S
Zn2           O7   2.107       .  S
Zn2           O9   2.053       .  S
Zn2          O13   2.057       .  S
Zn3           O5   1.979       .  S
Zn3           O8   2.083       .  S
Zn3          O11   1.988       .  S
Zn3          O14   2.079       .  S
Zn4           O5   1.936       .  S
Zn4          O12   2.015       .  S
Zn4          O15   2.004       .  S
Zn4          O16   1.977       .  S
O6           C18   1.276       .  A
O7           C19   1.280       .  A
O8           C20   1.280       .  A
O9           C18   1.277       .  A
O10          C20   1.282       .  A
O11          C19   1.278       .  A
O12          C21   1.279       .  A
O13          C22   1.281       .  A
O14          C21   1.275       .  A
O15          C22   1.268       .  A
O16          C23   1.273       .  A
O17          C23   1.274       .  A
C18         C409   1.483       .  S
C19          C55   1.505       .  S
C20          C98   1.505       .  S
C21         C146   1.498       .  S
C22         C333   1.482       .  S
C23         C267   1.477       .  S
C24          C25   1.529       .  S
C24          C30   1.515       .  S
C24          C28   1.558       .  S
C24         C937   1.527       .  S
C25          H32   1.081       .  S
C25          C26   1.370       .  D
C26         C233   1.507       .  S
C26          C27   1.578       .  S
C27          C31   1.560       .  S
C27          C29   1.523       .  S
C27          H33   1.106       .  S
C28          H34   1.085       .  S
C28          C29   1.370       .  D
C29         C917   1.483       .  S
C30          H35   1.086       .  S
C30          C31   1.359       .  D
C31         C254   1.514       .  S
C36          C37   1.535       .  S
C36          C42   1.526       .  S
C36          C40   1.553       .  S
C36         C944   1.531       .  S
C37          H44   1.083       .  S
C37          C38   1.365       .  D
C38         C188   1.513       .  S
C38          C39   1.576       .  S
C39          C43   1.571       .  S
C39          C41   1.525       .  S
C39          H45   1.106       .  S
C40          H46   1.084       .  S
C40          C41   1.368       .  D
C41         C904   1.491       .  S
C42          H47   1.080       .  S
C42          C43   1.354       .  D
C43         C469   1.507       .  S
C48          C49   1.516       .  S
C48          C54   1.511       .  S
C48          C52   1.544       .  S
C48         C924   1.522       .  S
C49          H56   1.088       .  S
C49          C50   1.367       .  D
C50         C398   1.490       .  S
C50          C51   1.578       .  S
C51          C55   1.574       .  S
C51          C53   1.529       .  S
C51          H57   1.110       .  S
C52          H58   1.086       .  S
C52          C53   1.361       .  D
C53         C884   1.475       .  S
C54          H59   1.084       .  S
C54          C55   1.365       .  D
C60          C61   1.525       .  S
C60          C66   1.522       .  S
C60          C64   1.539       .  S
C60         C897   1.532       .  S
C61          H68   1.089       .  S
C61          C62   1.365       .  D
C62         C329   1.493       .  S
C62          C63   1.567       .  S
C63          C67   1.569       .  S
C63          C65   1.529       .  S
C63          H69   1.110       .  S
C64          H70   1.087       .  S
C64          C65   1.361       .  D
C65         C877   1.473       .  S
C66          H71   1.077       .  S
C66          C67   1.371       .  D
C67         C213   1.499       .  S
C72          C73   1.508       .  S
C72          C78   1.529       .  S
C72          C76   1.562       .  S
C72         C837   1.521       .  S
C73          H80   1.091       .  S
C73          C74   1.352       .  D
C74         C325   1.489       .  S
C74          C75   1.572       .  S
C75          C79   1.582       .  S
C75          C77   1.524       .  S
C75          H81   1.110       .  S
C76          H82   1.086       .  S
C76          C77   1.365       .  D
C77         C864   1.495       .  S
C78          H83   1.084       .  S
C78          C79   1.373       .  D
C79         C189   1.498       .  S
C84          C85   1.510       .  S
C84          C90   1.507       .  S
C84          C88   1.563       .  S
C84         C817   1.532       .  S
C85          H92   1.091       .  S
C85          C86   1.359       .  D
C86         C467   1.496       .  S
C86          C87   1.586       .  S
C87          C91   1.578       .  S
C87          C89   1.540       .  S
C87          H93   1.108       .  S
C88          H94   1.076       .  S
C88          C89   1.377       .  D
C89         C857   1.510       .  S
C90          H95   1.087       .  S
C90          C91   1.364       .  D
C91         C210   1.516       .  S
C96          C97   1.518       .  S
C96         C102   1.514       .  S
C96         C100   1.547       .  S
C96         C804   1.536       .  S
C97         H104   1.089       .  S
C97          C98   1.364       .  D
C98          C99   1.582       .  S
C99         C103   1.576       .  S
C99         C101   1.532       .  S
C99         H105   1.109       .  S
C100        H106   1.074       .  S
C100        C101   1.373       .  D
C101        C844   1.488       .  S
C102        H107   1.088       .  S
C102        C103   1.361       .  D
C103        C258   1.507       .  S
C108        C109   1.519       .  S
C108        C114   1.528       .  S
C108        C112   1.560       .  S
C108        C824   1.521       .  S
C109        H116   1.083       .  S
C109        C110   1.360       .  D
C110        C399   1.495       .  S
C110        C111   1.580       .  S
C111        C115   1.571       .  S
C111        C113   1.517       .  S
C111        H117   1.109       .  S
C112        H118   1.086       .  S
C112        C113   1.363       .  D
C113        C797   1.486       .  S
C114        H119   1.080       .  S
C114        C115   1.356       .  D
C115        C232   1.506       .  S
C120        C121   1.514       .  S
C120        C126   1.509       .  S
C120        C124   1.561       .  S
C120        C784   1.513       .  S
C121        H128   1.081       .  S
C121        C122   1.364       .  D
C122        C208   1.512       .  S
C122        C123   1.590       .  S
C123        C127   1.589       .  S
C123        C125   1.523       .  S
C123        H129   1.110       .  S
C124        H130   1.086       .  S
C124        C125   1.364       .  D
C125        C764   1.489       .  S
C126        H131   1.091       .  S
C126        C127   1.357       .  D
C127        C401   1.506       .  S
C132        C133   1.516       .  S
C132        C138   1.523       .  S
C132        C136   1.556       .  S
C132        C744   1.513       .  S
C133        H140   1.085       .  S
C133        C134   1.357       .  D
C134        C468   1.504       .  S
C134        C135   1.577       .  S
C135        C139   1.582       .  S
C135        C137   1.513       .  S
C135        H141   1.109       .  S
C136        H142   1.085       .  S
C136        C137   1.367       .  D
C137        C777   1.471       .  S
C138        H143   1.088       .  S
C138        C139   1.358       .  D
C139        C231   1.514       .  S
C144        C145   1.510       .  S
C144        C150   1.520       .  S
C144        C148   1.527       .  S
C144        C717   1.510       .  S
C145        H152   1.085       .  S
C145        C146   1.364       .  D
C146        C147   1.581       .  S
C147        C151   1.580       .  S
C147        C149   1.534       .  S
C147        H153   1.105       .  S
C148        H154   1.089       .  S
C148        C149   1.352       .  D
C149        C757   1.476       .  S
C150        H155   1.086       .  S
C150        C151   1.371       .  D
C151        C330   1.499       .  S
C156        C157   1.518       .  S
C156        C162   1.524       .  S
C156        C160   1.558       .  S
C156        C737   1.516       .  S
C157        H164   1.078       .  S
C157        C158   1.366       .  D
C158        C255   1.525       .  S
C158        C159   1.581       .  S
C159        C163   1.591       .  S
C159        C161   1.508       .  S
C159        H165   1.108       .  S
C160        H166   1.087       .  S
C160        C161   1.358       .  D
C161        C724   1.466       .  S
C162        H167   1.087       .  S
C162        C163   1.356       .  D
C163        C186   1.522       .  S
Zn168       O172   1.973       .  S
Zn168       O173   2.037       .  S
Zn168       O177   1.992       .  S
Zn168       O184   1.978       .  S
Zn169       O172   1.940       .  S
Zn169       O174   2.091       .  S
Zn169       O176   2.020       .  S
Zn169       O180   2.041       .  S
Zn170       O172   1.962       .  S
Zn170       O175   2.078       .  S
Zn170       O178   2.105       .  S
Zn170       O181   2.105       .  S
Zn171       O172   1.977       .  S
Zn171       O179   2.075       .  S
Zn171       O182   2.094       .  S
Zn171       O183   2.121       .  S
O173        C185   1.270       .  A
O174        C186   1.283       .  A
O175        C187   1.283       .  A
O176        C185   1.273       .  A
O177        C187   1.270       .  A
O178        C186   1.289       .  A
O179        C188   1.288       .  A
O180        C189   1.274       .  A
O181        C188   1.285       .  A
O182        C189   1.281       .  A
O183        C190   1.285       .  A
O184        C190   1.273       .  A
C185        C303   1.470       .  S
C187        C350   1.484       .  S
C190        C428   1.495       .  S
Zn191       O195   1.945       .  S
Zn191       O196   2.070       .  S
Zn191       O200   1.974       .  S
Zn191       O207   1.993       .  S
Zn192       O195   1.933       .  S
Zn192       O197   2.005       .  S
Zn192       O199   2.066       .  S
Zn192       O203   1.991       .  S
Zn193       O195   2.014       .  S
Zn193       O198   2.145       .  S
Zn193       O201   2.023       .  S
Zn193       O204   2.022       .  S
Zn194       O195   1.997       .  S
Zn194       O202   2.060       .  S
Zn194       O205   2.070       .  S
Zn194       O206   2.106       .  S
O196        C208   1.273       .  A
O197        C209   1.275       .  A
O198        C210   1.282       .  A
O199        C208   1.284       .  A
O200        C210   1.273       .  A
O201        C209   1.273       .  A
O202        C211   1.276       .  A
O203        C212   1.270       .  A
O204        C211   1.280       .  A
O205        C212   1.283       .  A
O206        C213   1.281       .  A
O207        C213   1.275       .  A
C209        C291   1.473       .  S
C211        C421   1.484       .  S
C212        C369   1.479       .  S
Zn214       O218   1.987       .  S
Zn214       O219   2.071       .  S
Zn214       O223   2.100       .  S
Zn214       O230   2.042       .  S
Zn215       O218   1.963       .  S
Zn215       O220   2.091       .  S
Zn215       O222   2.103       .  S
Zn215       O226   1.982       .  S
Zn216       O218   1.935       .  S
Zn216       O221   2.018       .  S
Zn216       O224   2.051       .  S
Zn216       O227   1.983       .  S
Zn217       O218   2.051       .  S
Zn217       O225   2.112       .  S
Zn217       O228   2.107       .  S
Zn217       O229   2.075       .  S
O219        C231   1.283       .  A
O220        C232   1.279       .  A
O221        C233   1.276       .  A
O222        C231   1.281       .  A
O223        C233   1.279       .  A
O224        C232   1.277       .  A
O225        C234   1.279       .  A
O226        C235   1.278       .  A
O227        C234   1.275       .  A
O228        C235   1.281       .  A
O229        C236   1.281       .  A
O230        C236   1.279       .  A
C234        C445   1.510       .  S
C235        C279   1.504       .  S
C236        C362   1.490       .  S
Zn237       O241   1.957       .  S
Zn237       O242   2.015       .  S
Zn237       O246   2.023       .  S
Zn237       O253   2.101       .  S
Zn238       O241   1.997       .  S
Zn238       O243   2.035       .  S
Zn238       O245   2.127       .  S
Zn238       O249   2.129       .  S
Zn239       O241   2.015       .  S
Zn239       O244   2.048       .  S
Zn239       O247   2.130       .  S
Zn239       O250   2.021       .  S
Zn240       O241   1.954       .  S
Zn240       O248   2.048       .  S
Zn240       O251   2.007       .  S
Zn240       O252   2.001       .  S
O242        C254   1.280       .  A
O243        C255   1.282       .  A
O244        C256   1.275       .  A
O245        C254   1.287       .  A
O246        C256   1.276       .  A
O247        C255   1.282       .  A
O248        C257   1.274       .  A
O249        C258   1.283       .  A
O250        C257   1.278       .  A
O251        C258   1.276       .  A
O252        C259   1.274       .  A
O253        C259   1.278       .  A
C256        C338   1.483       .  S
C257        C274   1.483       .  S
C259        C433   1.499       .  S
C260        C261   1.494       .  S
C260        C266   1.515   1_554  S
C260        C264   1.558       .  S
C260        C684   1.512       .  S
C261        H268   1.089       .  S
C261        C262   1.354       .  D
C262        C400   1.481       .  S
C262        C263   1.569       .  S
C263        C267   1.571   1_554  S
C263        C265   1.545       .  S
C263        H269   1.108       .  S
C264        H270   1.084       .  S
C264        C265   1.373       .  D
C265        C697   1.513       .  S
C266        H271   1.087       .  S
C266        C267   1.363       .  D
C272        C273   1.514   1_554  S
C272        C278   1.502       .  S
C272        C276   1.564       .  S
C272        C657   1.521       .  S
C273        H280   1.079       .  S
C273        C274   1.361       .  D
C274        C275   1.579   1_556  S
C275        C279   1.574       .  S
C275        C277   1.530       .  S
C275        H281   1.109       .  S
C276        H282   1.086   1_554  S
C276        C277   1.370       .  D
C277        C704   1.505       .  S
C278        H283   1.088       .  S
C278        C279   1.363       .  D
C284        C285   1.504       .  S
C284        C290   1.511   1_556  S
C284        C288   1.563   1_556  S
C284        C677   1.513   1_556  S
C285        H292   1.085       .  S
C285        C286   1.365       .  D
C286        C327   1.489       .  S
C286        C287   1.571       .  S
C287        C291   1.576   1_556  S
C287        C289   1.532       .  S
C287        H293   1.109       .  S
C288        H294   1.086       .  S
C288        C289   1.369   1_554  D
C289        C644   1.510       .  S
C290        H295   1.087       .  S
C290        C291   1.356       .  D
C296        C297   1.516   1_556  S
C296        C302   1.494       .  S
C296        C300   1.560       .  S
C296        C664   1.522       .  S
C297        H304   1.078       .  S
C297        C298   1.365       .  D
C298        C471   1.511       .  S
C298        C299   1.575   1_554  S
C299        C303   1.574       .  S
C299        C301   1.539       .  S
C299        H305   1.108       .  S
C300        H306   1.085   1_556  S
C300        C301   1.375       .  D
C301        C637   1.513       .  S
C302        H307   1.089       .  S
C302        C303   1.354       .  D
Zn308       O312   1.948       .  S
Zn308       O313   2.042       .  S
Zn308       O317   1.958       .  S
Zn308       O324   2.112       .  S
Zn309       O312   1.922       .  S
Zn309       O314   1.963       .  S
Zn309       O316   2.051       .  S
Zn309       O320   2.014       .  S
Zn310       O312   2.055       .  S
Zn310       O315   2.073       .  S
Zn310       O318   2.117       .  S
Zn310       O321   2.071       .  S
Zn311       O312   1.953       .  S
Zn311       O319   1.970       .  S
Zn311       O322   2.062       .  S
Zn311       O323   1.974       .  S
O313        C325   1.280       .  A
O314        C326   1.272       .  A
O315        C327   1.275       .  A
O316        C325   1.274       .  A
O317        C327   1.274       .  A
O318        C326   1.279       .  A
O319        C328   1.274       .  A
O320        C329   1.275       .  A
O321        C328   1.279       .  A
O322        C329   1.271       .  A
O323        C330   1.271       .  A
O324        C330   1.278       .  A
C326        C404   1.506       .  S
C328        C345   1.474       .  S
C331        C332   1.527       .  S
C331        C337   1.536   1_565  S
C331        C335   1.552       .  S
C331        C624   1.534       .  S
C332        H339   1.088       .  S
C332        C333   1.364       .  D
C333        C334   1.549       .  S
C334        C338   1.549   1_565  S
C334        C336   1.519       .  S
C334        H340   1.109   1_565  S
C335        H341   1.086       .  S
C335        C336   1.363       .  D
C336        C604   1.473       .  S
C337        H342   1.080       .  S
C337        C338   1.369       .  D
C343        C344   1.499       .  S
C343        C349   1.526   1_565  S
C343        C347   1.554   1_565  S
C343        C584   1.521       .  S
C344        H351   1.090       .  S
C344        C345   1.349       .  D
C345        C346   1.558       .  S
C346        C350   1.568   1_565  S
C346        C348   1.534   1_565  S
C346        H352   1.110       .  S
C347        H353   1.079       .  S
C347        C348   1.376       .  D
C348        C617   1.489       .  S
C349        H354   1.089       .  S
C349        C350   1.365       .  D
C355        C356   1.510   1_545  S
C355        C361   1.520       .  S
C355        C359   1.549       .  S
C355        C597   1.518       .  S
C356        H363   1.089       .  S
C356        C357   1.358       .  D
C357        C396   1.486       .  S
C357        C358   1.563   1_565  S
C358        C362   1.570       .  S
C358        C360   1.529       .  S
C358        H364   1.109       .  S
C359        H365   1.085       .  S
C359        C360   1.369       .  D
C360        C557   1.484   1_545  S
C361        H366   1.086       .  S
C361        C362   1.364       .  D
C367        C368   1.528       .  S
C367        C373   1.525   1_565  S
C367        C371   1.548       .  S
C367        C564   1.535       .  S
C368        H375   1.083       .  S
C368        C369   1.368       .  D
C369        C370   1.551   1_565  S
C370        C374   1.556       .  S
C370        C372   1.522   1_545  S
C370        H376   1.110       .  S
C371        H377   1.087       .  S
C371        C372   1.360       .  D
C372        C577   1.471       .  S
C373        H378   1.081       .  S
C373        C374   1.368       .  D
C374        C470   1.496       .  S
Zn379       O383   1.938       .  S
Zn379       O384   2.026       .  S
Zn379       O388   2.070       .  S
Zn379       O395   2.023       .  S
Zn380       O383   2.028       .  S
Zn380       O385   2.128       .  S
Zn380       O387   2.073       .  S
Zn380       O391   2.060       .  S
Zn381       O383   1.915       .  S
Zn381       O386   2.034       .  S
Zn381       O389   1.949       .  S
Zn381       O392   2.063       .  S
Zn382       O383   1.942       .  S
Zn382       O390   2.042       .  S
Zn382       O393   2.031       .  S
Zn382       O394   2.119       .  S
O384        C396   1.282       .  A
O385        C397   1.281       .  A
O386        C398   1.270       .  A
O387        C396   1.283       .  A
O388        C398   1.276       .  A
O389        C397   1.270       .  A
O390        C399   1.276       .  A
O391        C400   1.275       .  A
O392        C399   1.278       .  A
O393        C400   1.277       .  A
O394        C401   1.284       .  A
O395        C401   1.278       .  A
C397        C416   1.506       .  S
C402        C403   1.509   1_655  S
C402        C408   1.509       .  S
C402        C406   1.563       .  S
C402        C524   1.528       .  S
C403        H410   1.081       .  S
C403        C404   1.366       .  D
C404        C405   1.571   1_455  S
C405        C409   1.577       .  S
C405        C407   1.534       .  S
C405        H411   1.109   1_655  S
C406        H412   1.085       .  S
C406        C407   1.372       .  D
C407        C537   1.502       .  S
C408        H413   1.090       .  S
C408        C409   1.363       .  D
C414        C415   1.503   1_455  S
C414        C420   1.504       .  S
C414        C418   1.560       .  S
C414        C504   1.519       .  S
C415        H422   1.083       .  S
C415        C416   1.372       .  D
C416        C417   1.575   1_655  S
C417        C421   1.578       .  S
C417        C419   1.536       .  S
C417        H423   1.110       .  S
C418        H424   1.085       .  S
C418        C419   1.370       .  D
C419        C544   1.500       .  S
C420        H425   1.091       .  S
C420        C421   1.357       .  D
C426        C427   1.517       .  S
C426        C432   1.521   1_455  S
C426        C430   1.546       .  S
C426        C477   1.536       .  S
C427        H434   1.081       .  S
C427        C428   1.369       .  D
C428        C429   1.566       .  S
C429        C433   1.570   1_455  S
C429        C431   1.526       .  S
C429        H435   1.110       .  S
C430        H436   1.086       .  S
C430        C431   1.368       .  D
C431        C517   1.474       .  S
C432        H437   1.089       .  S
C432        C433   1.367       .  D
C438        C439   1.515       .  S
C438        C444   1.512   1_455  S
C438        C442   1.559       .  S
C438        C497   1.525       .  S
C439        H446   1.084       .  S
C439        C440   1.366       .  D
C440        C472   1.517       .  S
C440        C441   1.579       .  S
C441        C445   1.579   1_455  S
C441        C443   1.515       .  S
C441        H447   1.111   1_455  S
C442        H448   1.087       .  S
C442        C443   1.360       .  D
C443        C484   1.472       .  S
C444        H449   1.084       .  S
C444        C445   1.369       .  D
Zn450       O454   1.942       .  S
Zn450       O455   2.080       .  S
Zn450       O459   2.078       .  S
Zn450       O466   1.997       .  S
Zn451       O454   1.918       .  S
Zn451       O456   2.049       .  S
Zn451       O458   2.039       .  S
Zn451       O462   1.927       .  S
Zn452       O454   1.999       .  S
Zn452       O457   2.094       .  S
Zn452       O460   2.105       .  S
Zn452       O463   2.099       .  S
Zn453       O454   2.032       .  S
Zn453       O461   1.980       .  S
Zn453       O464   2.123       .  S
Zn453       O465   2.121       .  S
O455        C467   1.283       .  A
O456        C468   1.276       .  A
O457        C469   1.284       .  A
O458        C467   1.271       .  A
O459        C469   1.279       .  A
O460        C468   1.286       .  A
O461        C470   1.276       .  A
O462        C471   1.272       .  A
O463        C470   1.282       .  A
O464        C471   1.277       .  A
O465        C472   1.281       .  A
O466        C472   1.279       .  A
C473        C474   1.403   1_556  A
C473        C478   1.397       .  A
C473        F491   1.359   1_556  S
C474        C475   1.401   1_454  A
C474        C479   1.481       .  S
C475        C476   1.396       .  A
C475        F480   1.358       .  S
C476        C477   1.417   1_655  A
C476        F492   1.359       .  S
C477        C478   1.419       .  A
C478        F481   1.354       .  S
C479        C482   1.408       .  A
C479        C486   1.406   1_455  A
C482        C483   1.399       .  A
C482        F487   1.358       .  S
C483        C484   1.403       .  A
C483        F489   1.358       .  S
C484        C485   1.403   1_455  A
C485        C486   1.394       .  A
C485        F488   1.355       .  S
C486        F490   1.358       .  S
C493        C494   1.395       .  A
C493        C498   1.389       .  A
C493        F511   1.359       .  S
C494        C495   1.400   1_455  A
C494        C499   1.472       .  S
C495        C496   1.393       .  A
C495        F500   1.358       .  S
C496        C497   1.419   1_655  A
C496        F512   1.356       .  S
C497        C498   1.420       .  A
C498        F501   1.355       .  S
C499        C502   1.407       .  A
C499        C506   1.401       .  A
C502        C503   1.383       .  A
C502        F507   1.359       .  S
C503        C504   1.407       .  A
C503        F509   1.358       .  S
C504        C505   1.418       .  A
C505        C506   1.396       .  A
C505        F508   1.355   1_455  S
C506        F510   1.358   1_455  S
C513        C514   1.406   1_455  A
C513        C518   1.392       .  A
C513        F531   1.359       .  S
C514        C515   1.401       .  A
C514        C519   1.468       .  S
C515        C516   1.398       .  A
C515        F520   1.356       .  S
C516        C517   1.407   1_655  A
C516        F532   1.356       .  S
C517        C518   1.403       .  A
C518        F521   1.359       .  S
C519        C522   1.400       .  A
C519        C526   1.404       .  A
C522        C523   1.395       .  A
C522        F527   1.358   1_655  S
C523        C524   1.416       .  A
C523        F529   1.357   1_655  S
C524        C525   1.408       .  A
C525        C526   1.393       .  A
C525        F528   1.358       .  S
C526        F530   1.358       .  S
C533        C534   1.406   1_455  A
C533        C538   1.404       .  A
C533        F551   1.358       .  S
C534        C535   1.405       .  A
C534        C539   1.491   1_556  S
C535        C536   1.404       .  A
C535        F540   1.358       .  S
C536        C537   1.413       .  A
C536        F552   1.357       .  S
C537        C538   1.411   1_655  A
C538        F541   1.357       .  S
C539        C542   1.406   1_655  A
C539        C546   1.405       .  A
C542        C543   1.405       .  A
C542        F547   1.358       .  S
C543        C544   1.411       .  A
C543        F549   1.357       .  S
C544        C545   1.412   1_455  A
C545        C546   1.404       .  A
C545        F548   1.358       .  S
C546        F550   1.358       .  S
C553        C554   1.408       .  A
C553        C558   1.392       .  A
C553        F571   1.359       .  S
C554        C555   1.405   1_565  A
C554        C559   1.480   1_655  S
C555        C556   1.399       .  A
C555        F560   1.358       .  S
C556        C557   1.409   1_545  A
C556        F572   1.357       .  S
C557        C558   1.407       .  A
C558        F561   1.358       .  S
C559        C562   1.400       .  A
C559        C566   1.398   1_565  A
C562        C563   1.398       .  A
C562        F567   1.359       .  S
C563        C564   1.422       .  A
C563        F569   1.354       .  S
C564        C565   1.422   1_565  A
C565        C566   1.392       .  A
C565        F568   1.355       .  S
C566        F570   1.359       .  S
C573        C574   1.403   1_545  A
C573        C578   1.386       .  A
C573        F591   1.357       .  S
C574        C575   1.403       .  A
C574        C579   1.471       .  S
C575        C576   1.396       .  A
C575        F580   1.355       .  S
C576        C577   1.408       .  A
C576        F592   1.358       .  S
C577        C578   1.402   1_565  A
C578        F581   1.356       .  S
C579        C582   1.402       .  A
C579        C586   1.398       .  A
C582        C583   1.397       .  A
C582        F587   1.357       .  S
C583        C584   1.413       .  A
C583        F589   1.352       .  S
C584        C585   1.416       .  A
C585        C586   1.384       .  A
C585        F588   1.359       .  S
C586        F590   1.359       .  S
C593        C594   1.394   1_565  A
C593        C598   1.391       .  A
C593        F611   1.359       .  S
C594        C595   1.397       .  A
C594        C599   1.455       .  S
C595        C596   1.389       .  A
C595        F600   1.359       .  S
C596        C597   1.414       .  A
C596        F612   1.356       .  S
C597        C598   1.418   1_545  A
C598        F601   1.357       .  S
C599        C602   1.399       .  A
C599        C606   1.396   1_545  A
C602        C603   1.393       .  A
C602        F607   1.357       .  S
C603        C604   1.409   1_545  A
C603        F609   1.358       .  S
C604        C605   1.409       .  A
C605        C606   1.385       .  A
C605        F608   1.355       .  S
C606        F610   1.359       .  S
C613        C614   1.408       .  A
C613        C618   1.396       .  A
C613        F631   1.358       .  S
C614        C615   1.402   1_545  A
C614        C619   1.479   1_545  S
C615        C616   1.399       .  A
C615        F620   1.358       .  S
C616        C617   1.411   1_565  A
C616        F632   1.354       .  S
C617        C618   1.406       .  A
C618        F621   1.358       .  S
C619        C622   1.403   1_455  A
C619        C626   1.403   1_465  A
C622        C623   1.393       .  A
C622        F627   1.359   1_655  S
C623        C624   1.416       .  A
C623        F629   1.359       .  S
C624        C625   1.416   1_565  A
C625        C626   1.401       .  A
C625        F628   1.353       .  S
C626        F630   1.358   1_655  S
C633        C634   1.403   1_554  A
C633        C638   1.407       .  A
C633        F651   1.356       .  S
C634        C635   1.406       .  A
C634        C639   1.497   1_545  S
C635        C636   1.410       .  A
C635        F640   1.358       .  S
C636        C637   1.416       .  A
C636        F652   1.357       .  S
C637        C638   1.413   1_556  A
C638        F641   1.356       .  S
C639        C642   1.403       .  A
C639        C646   1.408   1_556  A
C642        C643   1.405       .  A
C642        F647   1.358       .  S
C643        C644   1.413       .  A
C643        F649   1.354       .  S
C644        C645   1.414   1_556  A
C645        C646   1.411       .  A
C645        F648   1.357       .  S
C646        F650   1.357       .  S
C653        C654   1.396       .  A
C653        C658   1.394       .  A
C653        F671   1.358       .  S
C654        C655   1.401   1_556  A
C654        C659   1.460       .  S
C655        C656   1.380       .  A
C655        F660   1.359       .  S
C656        C657   1.412       .  A
C656        F672   1.360       .  S
C657        C658   1.420   1_554  A
C658        F661   1.350       .  S
C659        C662   1.401       .  A
C659        C666   1.397   1_556  A
C662        C663   1.384       .  A
C662        F667   1.359       .  S
C663        C664   1.413       .  A
C663        F669   1.359       .  S
C664        C665   1.422   1_556  A
C665        C666   1.391       .  A
C665        F668   1.353       .  S
C666        F670   1.359       .  S
C673        C674   1.402   1_556  A
C673        C678   1.381       .  A
C673        F691   1.359       .  S
C674        C675   1.397       .  A
C674        C679   1.464       .  S
C675        C676   1.389       .  A
C675        F680   1.360       .  S
C676        C677   1.420       .  A
C676        F692   1.356       .  S
C677        C678   1.412   1_554  A
C678        F681   1.357       .  S
C679        C682   1.404       .  A
C679        C686   1.398       .  A
C682        C683   1.383       .  A
C682        F687   1.358       .  S
C683        C684   1.406       .  A
C683        F689   1.354       .  S
C684        C685   1.413       .  A
C685        C686   1.392       .  A
C685        F688   1.354   1_554  S
C686        F690   1.356   1_554  S
C693        C694   1.405   1_556  A
C693        C698   1.406       .  A
C693        F711   1.358       .  S
C694        C695   1.406       .  A
C694        C699   1.497   1_565  S
C695        C696   1.406       .  A
C695        F700   1.358       .  S
C696        C697   1.414       .  A
C696        F712   1.355       .  S
C697        C698   1.417   1_554  A
C698        F701   1.357       .  S
C699        C702   1.408       .  A
C699        C706   1.405   1_554  A
C702        C703   1.407       .  A
C702        F707   1.358       .  S
C703        C704   1.412       .  A
C703        F709   1.357       .  S
C704        C705   1.412   1_554  A
C705        C706   1.404       .  A
C705        F708   1.357       .  S
C706        F710   1.357       .  S
C713        C714   1.398   1_565  A
C713        C718   1.387       .  A
C713        F731   1.359   1_565  S
C714        C715   1.395   1_545  A
C714        C719   1.453       .  S
C715        C716   1.387       .  A
C715        F720   1.359   1_565  S
C716        C717   1.419       .  A
C716        F732   1.357       .  S
C717        C718   1.415       .  A
C718        F721   1.357       .  S
C719        C722   1.397       .  A
C719        C726   1.402       .  A
C722        C723   1.376       .  A
C722        F727   1.360       .  S
C723        C724   1.408       .  A
C723        F729   1.356       .  S
C724        C725   1.408       .  A
C725        C726   1.395       .  A
C725        F728   1.358       .  S
C726        F730   1.358       .  S
C733        C734   1.393       .  A
C733        C738   1.384       .  A
C733        F751   1.358       .  S
C734        C735   1.398       .  A
C734        C739   1.457       .  S
C735        C736   1.388       .  A
C735        F740   1.359       .  S
C736        C737   1.418       .  A
C736        F752   1.353       .  S
C737        C738   1.421       .  A
C738        F741   1.357       .  S
C739        C742   1.398       .  A
C739        C746   1.399       .  A
C742        C743   1.391       .  A
C742        F747   1.358       .  S
C743        C744   1.421       .  A
C743        F749   1.353       .  S
C744        C745   1.413       .  A
C745        C746   1.381       .  A
C745        F748   1.359       .  S
C746        F750   1.359       .  S
C753        C754   1.408       .  A
C753        C758   1.403       .  A
C753        F771   1.358       .  S
C754        C755   1.407       .  A
C754        C759   1.487       .  S
C755        C756   1.397       .  A
C755        F760   1.358       .  S
C756        C757   1.405       .  A
C756        F772   1.358       .  S
C757        C758   1.406       .  A
C758        F761   1.357       .  S
C759        C762   1.408       .  A
C759        C766   1.404       .  A
C762        C763   1.402       .  A
C762        F767   1.358       .  S
C763        C764   1.407       .  A
C763        F769   1.358       .  S
C764        C765   1.408       .  A
C765        C766   1.401       .  A
C765        F768   1.356       .  S
C766        F770   1.357       .  S
C773        C774   1.390       .  A
C773        C778   1.387       .  A
C773        F791   1.358       .  S
C774        C775   1.401       .  A
C774        C779   1.446       .  S
C775        C776   1.388       .  A
C775        F780   1.359       .  S
C776        C777   1.404       .  A
C776        F792   1.358       .  S
C777        C778   1.416       .  A
C778        F781   1.355       .  S
C779        C782   1.393   1_545  A
C779        C786   1.397   1_545  A
C782        C783   1.386       .  A
C782        F787   1.359       .  S
C783        C784   1.414       .  A
C783        F789   1.358       .  S
C784        C785   1.413       .  A
C785        C786   1.389       .  A
C785        F788   1.355       .  S
C786        F790   1.358   1_565  S
C793        C794   1.400       .  A
C793        C798   1.387       .  A
C793        F811   1.359       .  S
C794        C795   1.406       .  A
C794        C799   1.476       .  S
C795        C796   1.402       .  A
C795        F800   1.356       .  S
C796        C797   1.410       .  A
C796        F812   1.357       .  S
C797        C798   1.409       .  A
C798        F801   1.353       .  S
C799        C802   1.400       .  A
C799        C806   1.395   1_554  A
C802        C803   1.391   1_554  A
C802        F807   1.358       .  S
C803        C804   1.416       .  A
C803        F809   1.359       .  S
C804        C805   1.419       .  A
C805        C806   1.400       .  A
C805        F808   1.351       .  S
C806        F810   1.355   1_556  S
C813        C814   1.405       .  A
C813        C818   1.392       .  A
C813        F831   1.359       .  S
C814        C815   1.392       .  A
C814        C819   1.467       .  S
C815        C816   1.394       .  A
C815        F820   1.358       .  S
C816        C817   1.423       .  A
C816        F832   1.357       .  S
C817        C818   1.412       .  A
C818        F821   1.352       .  S
C819        C822   1.394       .  A
C819        C826   1.389       .  A
C822        C823   1.396       .  A
C822        F827   1.357       .  S
C823        C824   1.422       .  A
C823        F829   1.355       .  S
C824        C825   1.418       .  A
C825        C826   1.380       .  A
C825        F828   1.355       .  S
C826        F830   1.343       .  S
C833        C834   1.395       .  A
C833        C838   1.388       .  A
C833        F851   1.355       .  S
C834        C835   1.399       .  A
C834        C839   1.468       .  S
C835        C836   1.402       .  A
C835        F840   1.351       .  S
C836        C837   1.408       .  A
C836        F852   1.353       .  S
C837        C838   1.416       .  A
C838        F841   1.359       .  S
C839        C842   1.403       .  A
C839        C846   1.398       .  A
C842        C843   1.386       .  A
C842        F847   1.359       .  S
C843        C844   1.407       .  A
C843        F849   1.357       .  S
C844        C845   1.414       .  A
C845        C846   1.404       .  A
C845        F848   1.355       .  S
C846        F850   1.356       .  S
C853        C854   1.403       .  A
C853        C858   1.402       .  A
C853        F871   1.358       .  S
C854        C855   1.407       .  A
C854        C859   1.494   1_554  S
C855        C856   1.410       .  A
C855        F860   1.358       .  S
C856        C857   1.415       .  A
C856        F872   1.357       .  S
C857        C858   1.413       .  A
C858        F861   1.355       .  S
C859        C862   1.405       .  A
C859        C866   1.407       .  A
C862        C863   1.400       .  A
C862        F867   1.350       .  S
C863        C864   1.405       .  A
C863        F869   1.358       .  S
C864        C865   1.411       .  A
C865        C866   1.409       .  A
C865        F868   1.357       .  S
C866        F870   1.358       .  S
C873        C874   1.406       .  A
C873        C878   1.391       .  A
C873        F891   1.358       .  S
C874        C875   1.409       .  A
C874        C879   1.479   1_455  S
C875        C876   1.401       .  A
C875        F880   1.358       .  S
C876        C877   1.401       .  A
C876        F892   1.357       .  S
C877        C878   1.404       .  A
C878        F881   1.357       .  S
C879        C882   1.409       .  A
C879        C886   1.405       .  A
C882        C883   1.403       .  A
C882        F887   1.358       .  S
C883        C884   1.404       .  A
C883        F889   1.356       .  S
C884        C885   1.404       .  A
C885        C886   1.387       .  A
C885        F888   1.357       .  S
C886        F890   1.358       .  S
C893        C894   1.401       .  A
C893        C898   1.396       .  A
C893        F911   1.359       .  S
C894        C895   1.391       .  A
C894        C899   1.463       .  S
C895        C896   1.392       .  A
C895        F900   1.358       .  S
C896        C897   1.421       .  A
C896        F912   1.358       .  S
C897        C898   1.417       .  A
C898        F901   1.351       .  S
C899        C902   1.392       .  A
C899        C906   1.397       .  A
C902        C903   1.388       .  A
C902        F907   1.357       .  S
C903        C904   1.416       .  A
C903        F909   1.354       .  S
C904        C905   1.413       .  A
C905        C906   1.397       .  A
C905        F908   1.356       .  S
C906        F910   1.353       .  S
C913        C914   1.403       .  A
C913        C918   1.397       .  A
C913        F931   1.358       .  S
C914        C915   1.394       .  A
C914        C919   1.465       .  S
C915        C916   1.382       .  A
C915        F920   1.354       .  S
C916        C917   1.412       .  A
C916        F932   1.356       .  S
C917        C918   1.411       .  A
C918        F921   1.357       .  S
C919        C922   1.400       .  A
C919        C926   1.402       .  A
C922        C923   1.392       .  A
C922        F927   1.357       .  S
C923        C924   1.413       .  A
C923        F929   1.358       .  S
C924        C925   1.410       .  A
C925        C926   1.388       .  A
C925        F928   1.355       .  S
C926        F930   1.359       .  S
C933        C934   1.405       .  A
C933        C938   1.384       .  A
C933        F951   1.359   1_655  S
C934        C935   1.403       .  A
C934        C939   1.478   1_655  S
C935        C936   1.398       .  A
C935        F940   1.358       .  S
C936        C937   1.414       .  A
C936        F952   1.346       .  S
C937        C938   1.412       .  A
C938        F941   1.360       .  S
C939        C942   1.400       .  A
C939        C946   1.400       .  A
C942        C943   1.394       .  A
C942        F947   1.359       .  S
C943        C944   1.420       .  A
C943        F949   1.355       .  S
C944        C945   1.422       .  A
C945        C946   1.390       .  A
C945        F948   1.355       .  S
C946        F950   1.358       .  S
