geometry optimzed in LAMMPS
_audit_creation_date              2020-11-30 
_audit_creation_method            'lammps2cif' 
_symmetry_space_group_name_H-M    'P1' 
_symmetry_Int_Tables_number       1 
_symmetry_cell_setting            triclinic 
loop_ 
_symmetry_equiv_pos_as_xyz 
  x,y,z 
_cell_length_a                    40.37487496 
_cell_length_b                    40.60714142229562 
_cell_length_c                    29.71621933723435 
_cell_angle_alpha                 89.81168982753547 
_cell_angle_beta                  90.48748185536186 
_cell_angle_gamma                 120.99818658839293 
loop_ 
_atom_site_label 
_atom_site_type_symbol 
_atom_site_fract_x 
_atom_site_fract_y 
_atom_site_fract_z 
_atom_site_charge 
O1          O  0.47649811  0.58377226  0.39768691    -0.83900
O2          O  0.42828036  0.58187988  0.33145120    -0.81000
C3          C  0.45148207  0.60056179  0.30013909     0.99500
O4          O  0.46817070  0.58637704  0.27906014    -0.81000
O5          O  0.49886059  0.54122590  0.26187536    -0.83600
C6          C  0.52960734  0.55701415  0.28527766     1.04100
O7          O  0.52796722  0.55328690  0.32750859    -0.76400
O8          O  0.49882483  0.54599260  0.41315793    -0.76600
C9          C  0.49913715  0.57703831  0.41966171     1.04000
O10         O  0.42157297  0.50684094  0.42226977    -0.83900
O11         O  0.37621712  0.50233875  0.35013356    -0.81000
C12         C  0.36625506  0.50458690  0.31049016     0.99600
O13         O  0.39169181  0.51981100  0.28021744    -0.81000
O14         O  0.42315060  0.47416076  0.27184359    -0.83600
C15         C  0.44190352  0.45801362  0.28117627     1.04000
O16         O  0.47056815  0.47408723  0.30799361    -0.76400
O17         O  0.43758616  0.46877412  0.39013184    -0.76600
C18         C  0.41910629  0.47463078  0.41983719     1.04000
Cr19       Cr  0.42747135  0.54254210  0.37272433     1.93700
Cr20       Cr  0.44590885  0.53009063  0.27750896     1.93200
Cr21       Cr  0.48160896  0.51174377  0.35813890     1.39100
O22         O  0.45177952  0.52816382  0.33611030    -1.21700
O23         O  0.40887347  0.89652457  0.38935877    -0.83900
O24         O  0.40275742  0.84999214  0.31982385    -0.81000
C25         C  0.38813060  0.86022186  0.28899262     0.99500
O26         O  0.40785090  0.89229834  0.26993375    -0.81000
O27         O  0.46657349  0.96716365  0.25698331    -0.83600
C28         C  0.45615490  0.98625136  0.28013926     1.04100
O29         O  0.45632758  0.98459952  0.32247253    -0.76400
O30         O  0.45371287  0.95545145  0.40734188    -0.76600
C31         C  0.41990203  0.92639458  0.41241947     1.04000
O32         O  0.48130129  0.90605814  0.41615453    -0.83900
O33         O  0.47912164  0.86546294  0.34125844    -0.81000
C34         C  0.47579244  0.85448093  0.30103479     0.99600
O35         O  0.46352227  0.86815154  0.27143139    -0.81000
O36         O  0.52142507  0.94363660  0.26858886    -0.83600
C37         C  0.54297557  0.97869652  0.27798213     1.04000
O38         O  0.53183468  0.99446124  0.30622590    -0.76400
O39         O  0.52682592  0.96020567  0.38803857    -0.76600
C40         C  0.51605522  0.93337714  0.41615518     1.04000
Cr41       Cr  0.44472351  0.88262766  0.36416806     1.93700
Cr42       Cr  0.46496454  0.91831019  0.27110118     1.93200
Cr43       Cr  0.49043526  0.97032411  0.35441784     1.39100
O44         O  0.46660021  0.92391200  0.33002986    -1.21700
O45         O  0.10299615  0.51499970  0.39764977    -0.83900
O46         O  0.14982490  0.56160717  0.33150113    -0.81000
C47         C  0.14213506  0.53659306  0.30145942     0.99500
O48         O  0.11047317  0.52156899  0.28031200    -0.81000
O49         O  0.03426490  0.49668926  0.26252179    -0.83600
C50         C  0.01749681  0.46570172  0.28452494     1.04100
O51         O  0.01775156  0.46668459  0.32688016    -0.76400
O52         O  0.04212805  0.49363262  0.41322609    -0.76600
C53         C  0.07257027  0.49210401  0.41824283     1.04000
O54         O  0.08498039  0.57145904  0.42467285    -0.83900
O55         O  0.12676294  0.61604105  0.35183326    -0.81000
C56         C  0.13836403  0.62554956  0.31195210     0.99600
O57         O  0.12766665  0.59982045  0.28208035    -0.81000
O58         O  0.05030608  0.57302857  0.27491893    -0.83600
C59         C  0.01482659  0.55553372  0.28389909     1.04000
O60         O  0.00015599  0.52652634  0.30990388    -0.76400
O61         O  0.02956180  0.55622581  0.39332514    -0.76600
C62         C  0.05464851  0.57328021  0.42361724     1.04000
Cr63       Cr  0.11315736  0.56448640  0.37395017     1.93700
Cr64       Cr  0.08014786  0.54732635  0.27913913     1.93200
Cr65       Cr  0.02574779  0.51278158  0.35932463     1.39100
O66         O  0.07286829  0.54155603  0.33763923    -1.21700
O67         O  0.43069346  0.18597210  0.08530736    -0.83900
O68         O  0.47182974  0.18354585  0.01269023    -0.81000
C69         C  0.48217794  0.18424137  0.97258857     0.99500
O70         O  0.47110307  0.19820715  0.94192316    -0.81000
O71         O  0.39388471  0.14553555  0.93468767    -0.83600
C72         C  0.35865471  0.12639143  0.94484652     1.04100
O73         O  0.34433329  0.13995981  0.97153153    -0.76400
O74         O  0.37659507  0.14195888  0.05406334    -0.76600
C75         C  0.40198116  0.15209446  0.08440886     1.04000
O76         O  0.44605246  0.25935531  0.05564185    -0.83900
O77         O  0.49386385  0.26074859  0.98975485    -0.81000
C78         C  0.48595243  0.27706807  0.95876487     0.99600
O79         O  0.45407032  0.25913895  0.93815892    -0.81000
O80         O  0.37778339  0.20612064  0.92185186    -0.83600
C81         C  0.35950696  0.21782833  0.94459167     1.04000
O82         O  0.35919921  0.21608374  0.98696191    -0.76400
O83         O  0.38612337  0.21650664  0.07249155    -0.76600
C84         C  0.41554799  0.24999729  0.07683771     1.04000
Cr85       Cr  0.45757921  0.22086183  0.03323031     1.93700
Cr86       Cr  0.42369623  0.20216621  0.93842995     1.93200
Cr87       Cr  0.37000148  0.18011792  0.01974144     1.39100
O88         O  0.41693061  0.20104114  0.99709632    -1.21700
O89         O  0.81189821  0.23460369  0.08439055    -0.83900
O90         O  0.81223285  0.28145289  0.01823036    -0.81000
C91         C  0.81340923  0.29534098  0.97997217     0.99500
O92         O  0.80395525  0.27420487  0.94527043    -0.81000
O93         O  0.86208307  0.25860459  0.93724496    -0.83600
C94         C  0.88283046  0.24438593  0.94500029     1.04100
O95         O  0.87025822  0.21434889  0.96890948    -0.76400
O96         O  0.86074391  0.23431806  0.05392019    -0.76600
C97         C  0.84734917  0.24518112  0.08479549     1.04000
O98         O  0.74221969  0.17242210  0.04604627    -0.83900
O99         O  0.73863419  0.22148022  0.98553818    -0.81000
C100        C  0.72689000  0.20089968  0.95047907     0.99600
O101        O  0.74886093  0.19339636  0.92904095    -0.81000
O102        O  0.80777483  0.18057291  0.91414032    -0.83600
C103        C  0.79581618  0.14838909  0.93283731     1.04000
O104        O  0.79507101  0.14579770  0.97517707    -0.76400
O105        O  0.78866116  0.16189573  0.06406884    -0.76600
C106        C  0.75369938  0.15321491  0.06722990     1.04000
Cr107      Cr  0.77805408  0.22658101  0.03083060     1.93700
Cr108      Cr  0.80549789  0.22588389  0.93575152     1.93200
Cr109      Cr  0.82703318  0.19071191  0.01409729     1.39100
O110        O  0.80360760  0.21438993  0.99348870    -1.21700
O111        O  0.73697295  0.57605423  0.07131976    -0.83900
O112        O  0.72985518  0.52480405  0.00752495    -0.81000
C113        C  0.71372232  0.53209861  0.97559227     0.99500
O114        O  0.73257322  0.56243809  0.95286857    -0.81000
O115        O  0.78830545  0.63763357  0.93513250    -0.83600
C116        C  0.77795188  0.65715962  0.95758828     1.04100
O117        O  0.78145797  0.65904062  0.99985244    -0.76400
O118        O  0.78272441  0.63527646  0.08619430    -0.76600
C119        C  0.74818517  0.60765568  0.09077939     1.04000
O120        O  0.81017708  0.58789296  0.09884993    -0.83900
O121        O  0.80753838  0.54336116  0.02744900    -0.81000
C122        C  0.80630103  0.53256130  0.98736784     0.99600
O123        O  0.79135218  0.54256647  0.95675246    -0.81000
O124        O  0.84681092  0.61836405  0.94670558    -0.83600
C125        C  0.86827507  0.65355424  0.95574213     1.04000
O126        O  0.85657798  0.66969022  0.98241708    -0.76400
O127        O  0.85535108  0.63929353  0.06542523    -0.76600
C128        C  0.84510588  0.61438259  0.09593393     1.04000
Cr129      Cr  0.77270525  0.56083818  0.04856771     1.93700
Cr130      Cr  0.78998319  0.59099510  0.95229919     1.93200
Cr131      Cr  0.81732606  0.64736804  0.03204359     1.39100
O132        O  0.79320970  0.59982602  0.01087953    -1.21700
O133        O  0.75255220  0.85201778  0.76327080    -0.83900
O134        O  0.79093615  0.84124343  0.69298553    -0.81000
C135        C  0.80208835  0.84071487  0.65359414     0.99500
O136        O  0.79289560  0.85526897  0.62157848    -0.81000
O137        O  0.71439371  0.80789917  0.61389852    -0.83600
C138        C  0.67911596  0.79152485  0.62394334     1.04100
O139        O  0.66704317  0.80822286  0.64927756    -0.76400
O140        O  0.69626217  0.81125584  0.73379584    -0.76600
C141        C  0.72145439  0.81987948  0.76405643     1.04000
O142        O  0.77595195  0.92596176  0.72770777    -0.83900
O143        O  0.82024234  0.91898006  0.66508230    -0.81000
C144        C  0.81406903  0.93717816  0.63489676     0.99600
O145        O  0.78267150  0.92077063  0.61313134    -0.81000
O146        O  0.70550670  0.87176476  0.59531976    -0.83600
C147        C  0.68989815  0.88757004  0.61552475     1.04000
O148        O  0.68979295  0.88812563  0.65789202    -0.76400
O149        O  0.71462135  0.89031679  0.74434269    -0.76600
C150        C  0.74635457  0.92223136  0.74625388     1.04000
Cr151      Cr  0.78183440  0.88303907  0.70980501     1.93700
Cr152      Cr  0.74846923  0.86406978  0.61512147     1.93200
Cr153      Cr  0.69524237  0.85048275  0.69491639     1.39100
O154        O  0.74154952  0.86550414  0.67336880    -1.21700
O155        O  0.14888694  0.90211675  0.75118758    -0.83900
O156        O  0.14814888  0.94370858  0.67802037    -0.81000
C157        C  0.14502250  0.95287921  0.63832499     0.99500
O158        O  0.13031604  0.92712074  0.60815202    -0.81000
O159        O  0.18348296  0.90417934  0.59985398    -0.83600
C160        C  0.20313941  0.88897484  0.60944859     1.04100
O161        O  0.19043183  0.86122153  0.63714930    -0.76400
O162        O  0.19109740  0.89132984  0.71936370    -0.76600
C163        C  0.18246833  0.90715688  0.74956739     1.04000
O164        O  0.07346137  0.84135631  0.72570755    -0.83900
O165        O  0.06953421  0.88543949  0.65881322    -0.81000
C166        C  0.05200530  0.85985571  0.62909698     0.99600
O167        O  0.06944822  0.84667924  0.60769195    -0.81000
O168        O  0.12317124  0.82626638  0.59015164    -0.83600
C169        C  0.11111176  0.79593853  0.61297792     1.04000
O170        O  0.11315281  0.79767250  0.65532581    -0.76400
O171        O  0.11635632  0.82509174  0.74144430    -0.76600
C172        C  0.08330337  0.82102121  0.74735901     1.04000
Cr173      Cr  0.11147764  0.89172052  0.70081770     1.93700
Cr174      Cr  0.12679522  0.87573011  0.60576891     1.93200
Cr175      Cr  0.15114969  0.84560012  0.68673187     1.39100
O176        O  0.12995194  0.87099592  0.66448399    -1.21700
O177        O  0.10583036  0.25115155  0.76010535    -0.83900
O178        O  0.05304147  0.20800131  0.69425635    -0.81000
C179        C  0.03899933  0.19585064  0.65563928     0.99500
O180        O  0.06113199  0.20471541  0.62207671    -0.81000
O181        O  0.09466083  0.28284501  0.61110791    -0.83600
C182        C  0.11661082  0.31840429  0.61767729     1.04100
O183        O  0.14690998  0.33081515  0.64151054    -0.76400
O184        O  0.11884895  0.30443495  0.72697554    -0.76600
C185        C  0.10183365  0.27994284  0.75772694     1.04000
O186        O  0.15631482  0.22724935  0.72698217    -0.83900
O187        O  0.10085730  0.17873638  0.66701975    -0.81000
C188        C  0.12137604  0.18243720  0.63330359     0.99600
O189        O  0.13571749  0.21269053  0.61007932    -0.81000
O190        O  0.16724611  0.28908309  0.59157396    -0.83600
C191        C  0.19964983  0.30353686  0.61130292     1.04000
O192        O  0.20170693  0.30649019  0.65368895    -0.76400
O193        O  0.18031256  0.28803132  0.74225431    -0.76600
C194        C  0.18117693  0.25738807  0.74685287     1.04000
Cr195      Cr  0.10555309  0.21909863  0.70934067     1.93700
Cr196      Cr  0.11540356  0.24802613  0.61286117     1.93200
Cr197      Cr  0.15962966  0.30420602  0.68988735     1.39100
O198        O  0.12683844  0.25715250  0.67058007    -1.21700
C199        C  0.16768589  0.05463706  0.65695422     0.14100
C200        C  0.15667553  0.06274960  0.61546378     0.01100
C201        C  0.14848011  0.03773393  0.57909048     0.16000
C202        C  0.14756010  0.00302002  0.58537829     0.25500
C203        C  0.15471028  0.99286538  0.62839838    -0.40900
C204        C  0.16693784  0.02019776  0.66341265     0.32500
C205        C  0.14610341  0.09254149  0.61366442     0.01100
F206        F  0.13850425  0.04555826  0.53844056    -0.13200
F207        F  0.17568631  0.01270759  0.70497985    -0.13700
C208        C  0.17013865  0.12866083  0.59404059     0.16000
C209        C  0.16123897  0.15772486  0.59815388     0.25500
C210        C  0.12825077  0.15086359  0.62217954    -0.40800
C211        C  0.10320877  0.11375952  0.63929550     0.32400
C212        C  0.11215185  0.08506683  0.63513636     0.14100
F213        F  0.20293947  0.13624086  0.57273884    -0.13200
F214        F  0.07027872  0.10527577  0.66102945    -0.13700
F215        F  0.18590140  0.19298364  0.58077304    -0.16000
F216        F  0.08814287  0.05000617  0.65345803    -0.14500
F217        F  0.17631315  0.07889186  0.69234653    -0.14500
F218        F  0.13733163  0.97848588  0.55001415    -0.16000
C219        C  0.90958466  0.02989817  0.63870590     0.14100
C220        C  0.89830482  0.05679942  0.63078256     0.01100
C221        C  0.86008626  0.04422527  0.61800377     0.16000
C222        C  0.83271082  0.00480465  0.61608637     0.25500
C223        C  0.84350965  0.97780268  0.62705659    -0.40900
C224        C  0.88248993  0.99073956  0.63681253     0.33400
C225        C  0.92705225  0.09775485  0.63726207     0.01100
F226        F  0.84905093  0.07005964  0.60940064    -0.13200
F227        F  0.89419933  0.96543800  0.64568726    -0.13700
C228        C  0.94662375  0.12063050  0.60012287     0.16000
C229        C  0.98145356  0.15526740  0.60636160     0.25500
C230        C  0.99733637  0.16710722  0.64994488    -0.40800
C231        C  0.97493808  0.14635271  0.68735734     0.32400
C232        C  0.94013707  0.11172696  0.68091223     0.14100
F233        F  0.93391901  0.10768268  0.55772070    -0.13200
F234        F  0.98822161  0.15743474  0.73006665    -0.13700
F235        F  0.00100165  0.17561450  0.56947863    -0.16000
F236        F  0.92085940  0.09012163  0.71723590    -0.14500
F237        F  0.94686272  0.04172752  0.64944790    -0.14500
F238        F  0.79532354  0.99320689  0.60644517    -0.16000
C239        C  0.87373088  0.82351732  0.59289310     0.14100
C240        C  0.89454632  0.82053529  0.62902747     0.01100
C241        C  0.88068882  0.81732852  0.67298916     0.16000
C242        C  0.84844432  0.82072073  0.68105628     0.25500
C243        C  0.82966221  0.82751571  0.64510101    -0.40900
C244        C  0.84143458  0.82668463  0.60071634     0.32500
C245        C  0.93387335  0.82769082  0.62173216     0.01100
F246        F  0.90035795  0.81426258  0.70846742    -0.13200
F247        F  0.82318964  0.83123500  0.56476449    -0.13700
C248        C  0.96298791  0.86440768  0.60776475     0.16000
C249        C  0.00145639  0.87395087  0.60709613     0.25500
C250        C  0.01135505  0.84679250  0.61959035    -0.40800
C251        C  0.98207230  0.80916210  0.63024567     0.32400
C252        C  0.94347044  0.79979525  0.63206169     0.14100
F253        F  0.95443313  0.89185442  0.59766045    -0.13200
F254        F  0.99113618  0.78232346  0.64156260    -0.13700
F255        F  0.02937736  0.91025914  0.59599515    -0.16000
F256        F  0.91572012  0.76409544  0.64533979    -0.14500
F257        F  0.88623633  0.82584466  0.55007575    -0.14500
F258        F  0.83757345  0.82018234  0.72430204    -0.16000
C259        C  0.69929432  0.72762681  0.82080267     0.14100
C260        C  0.72109368  0.74180161  0.86069380     0.01100
C261        C  0.73706531  0.78061818  0.87208284     0.16000
C262        C  0.73460230  0.80571874  0.84189276     0.25500
C263        C  0.71595377  0.79228084  0.79993192    -0.40900
C264        C  0.69662915  0.75266920  0.79062018     0.32500
C265        C  0.73320676  0.71825439  0.88579554     0.01100
F266        F  0.75798529  0.79489733  0.91061646    -0.13200
F267        F  0.67823239  0.73867697  0.75059522    -0.13700
C268        C  0.75576505  0.70618945  0.86380319     0.16000
C269        C  0.77032858  0.68656093  0.88721870     0.25500
C270        C  0.76267858  0.67853174  0.93340397    -0.40800
C271        C  0.74009774  0.69074640  0.95555435     0.32400
C272        C  0.72549399  0.71050124  0.93185610     0.14100
F273        F  0.76500608  0.71478352  0.81975424    -0.13200
F274        F  0.73179654  0.68327203  0.99993641    -0.13700
F275        F  0.79299130  0.67653443  0.86473805    -0.16000
F276        F  0.70380353  0.72200633  0.95378080    -0.14500
F277        F  0.68294203  0.68995922  0.80966803    -0.14500
F278        F  0.75225918  0.84356752  0.85269322    -0.16000
C279        C  0.95171899  0.68163601  0.87550147     0.14100
C280        C  0.97267983  0.72174850  0.87992440     0.01100
C281        C  0.96177757  0.73906189  0.91267448     0.16000
C282        C  0.92892938  0.71678920  0.93889432     0.25500
C283        C  0.90620036  0.67659615  0.93269468    -0.40900
C284        C  0.91895937  0.65917631  0.90175173     0.32500
C285        C  0.00198536  0.74567213  0.84603071     0.01100
F286        F  0.98162750  0.77786487  0.91734987    -0.13200
F287        F  0.89905490  0.62052815  0.89545969    -0.13700
C288        C  0.98955051  0.74903246  0.80298731     0.16000
C289        C  0.01620096  0.77290504  0.77085357     0.25500
C290        C  0.05601287  0.79345521  0.78075304    -0.40800
C291        C  0.06862911  0.78973510  0.82379306     0.32400
C292        C  0.04167970  0.76624183  0.85641675     0.14100
F293        F  0.95127382  0.72998622  0.79255628    -0.13200
F294        F  0.10671885  0.81034015  0.83496821    -0.13700
F295        F  0.00297307  0.77615295  0.72998269    -0.16000
F296        F  0.05417282  0.76399079  0.89822925    -0.14500
F297        F  0.96215291  0.66435740  0.84431158    -0.14500
F298        F  0.91856149  0.73497920  0.96886029    -0.16000
C299        C  0.98572907  0.27200114  0.92082216     0.14100
C300        C  0.98861634  0.28134595  0.87475307     0.01100
C301        C  0.95808121  0.28280572  0.85365507     0.16000
C302        C  0.92455405  0.27310531  0.87752813     0.25500
C303        C  0.92055095  0.26076906  0.92256239    -0.40900
C304        C  0.95170143  0.26104310  0.94424579     0.32500
C305        C  0.02059795  0.28393115  0.84758536     0.01100
F306        F  0.95936451  0.29069592  0.80904059    -0.13200
F307        F  0.94886816  0.24988744  0.98786067    -0.13700
C308        C  0.02773013  0.25358204  0.84928124     0.16000
C309        C  0.05552320  0.25359028  0.82194023     0.25500
C310        C  0.07630167  0.28347716  0.79069406    -0.40800
C311        C  0.06959939  0.31429545  0.78934638     0.32400
C312        C  0.04220556  0.31465581  0.81782858     0.14100
F313        F  0.00622133  0.22253883  0.87588481    -0.13200
F314        F  0.08875616  0.34364648  0.75981477    -0.13700
F315        F  0.06069728  0.22316098  0.82508884    -0.16000
F316        F  0.03644636  0.34475215  0.81592694    -0.14500
F317        F  0.01536098  0.27190506  0.94265233    -0.14500
F318        F  0.89477669  0.27274901  0.85544008    -0.16000
C319        C  0.76914735  0.08372540  0.83069760     0.14100
C320        C  0.76448758  0.05011256  0.84995439     0.01100
C321        C  0.76914277  0.04824609  0.89647201     0.16000
C322        C  0.77882796  0.07995371  0.92367863     0.25500
C323        C  0.78400035  0.11410801  0.90457117    -0.40900
C324        C  0.77865980  0.11547014  0.85770329     0.32500
C325        C  0.75850270  0.01822057  0.82114265     0.01100
F326        F  0.76586485  0.01616375  0.91521381    -0.13200
F327        F  0.78293730  0.14755401  0.83772436    -0.13700
C328        C  0.78976447  0.02153117  0.79730273     0.16000
C329        C  0.78558730  0.99061094  0.77246708     0.25500
C330        C  0.74979681  0.95545639  0.77117456    -0.40800
C331        C  0.71803693  0.95283671  0.79405005     0.32400
C332        C  0.72250473  0.98405778  0.81900429     0.14100
F333        F  0.82477180  0.05455735  0.79911814    -0.13200
F334        F  0.68279488  0.92014028  0.79270994    -0.13700
F335        F  0.81696767  0.99527276  0.75019764    -0.16000
F336        F  0.69182262  0.98099802  0.84128868    -0.14500
F337        F  0.76511765  0.08595322  0.78555817    -0.14500
F338        F  0.78445151  0.07752212  0.96838903    -0.16000
C339        C  0.82447994  0.39066005  0.01054994     0.14100
C340        C  0.83576216  0.41058430  0.96951472     0.01100
C341        C  0.84200673  0.39331999  0.93219795     0.16000
C342        C  0.83569234  0.35607681  0.93558829     0.25500
C343        C  0.82334421  0.33576381  0.97650008    -0.40900
C344        C  0.81871996  0.35392376  0.01418016     0.32500
C345        C  0.83652730  0.44728544  0.96561171     0.01100
F346        F  0.85363046  0.41227775  0.89239091    -0.13200
F347        F  0.80649898  0.33543878  0.05421669    -0.13700
C348        C  0.85709469  0.47654704  0.99748795     0.16000
C349        C  0.84855853  0.50548483  0.00335746     0.25500
C350        C  0.82004070  0.50614445  0.97654751    -0.40800
C351        C  0.80303821  0.47962070  0.94091440     0.32400
C352        C  0.81090994  0.45014053  0.93582845     0.14100
F353        F  0.88360971  0.47554063  0.02496334    -0.13200
F354        F  0.77640334  0.48019786  0.91322982    -0.13700
F355        F  0.86726794  0.53208360  0.03621107    -0.16000
F356        F  0.79080210  0.42246716  0.90447516    -0.14500
F357        F  0.81667210  0.40587433  0.04669815    -0.14500
F358        F  0.84145385  0.33988853  0.89886608    -0.16000
C359        C  0.26069181  0.28524426  0.83473453     0.14100
C360        C  0.26211903  0.25152686  0.83717740     0.01100
C361        C  0.23796502  0.22035941  0.80934138     0.16000
C362        C  0.21228460  0.22253446  0.77951204     0.25500
C363        C  0.21003111  0.25609999  0.77715668    -0.40900
C364        C  0.23481359  0.28757394  0.80503549     0.32500
C365        C  0.28905270  0.24841225  0.86814779     0.01100
F366        F  0.23937541  0.18766922  0.81104838    -0.13200
F367        F  0.23377459  0.32046039  0.80416677    -0.13700
C368        C  0.27578564  0.22912435  0.90931913     0.16000
C369        C  0.29958830  0.22102039  0.93569039     0.25500
C370        C  0.33668299  0.23146613  0.92065575    -0.40800
C371        C  0.35038738  0.25209748  0.88018045     0.32400
C372        C  0.32677585  0.26071703  0.85427338     0.14100
F373        F  0.23916218  0.21665386  0.92289462    -0.13200
F374        F  0.38637587  0.26322605  0.86529034    -0.13700
F375        F  0.28540172  0.20066344  0.97428365    -0.16000
F376        F  0.34002514  0.27951451  0.81459094    -0.14500
F377        F  0.28410594  0.31570640  0.86144352    -0.14500
F378        F  0.18970122  0.19160911  0.75300161    -0.16000
C379        C  0.27555056  0.98530856  0.80145998     0.14100
C380        C  0.26302709  0.98754153  0.84470389     0.01100
C381        C  0.22547476  0.96007851  0.85816769     0.16000
C382        C  0.19975250  0.93250993  0.82771128     0.25500
C383        C  0.21136371  0.93185182  0.78344007    -0.40900
C384        C  0.24989995  0.95741514  0.77101409     0.32500
C385        C  0.28687669  0.02147376  0.87324053     0.01100
F386        F  0.21325365  0.96115608  0.90026634    -0.13200
F387        F  0.26184613  0.95737368  0.72843177    -0.13700
C388        C  0.27405679  0.04710406  0.88159465     0.16000
C389        C  0.29695223  0.08056350  0.90632458     0.25500
C390        C  0.33332101  0.08920729  0.92265266    -0.40800
C391        C  0.34596234  0.06324702  0.91495644     0.32400
C392        C  0.32276185  0.02945603  0.89044721     0.14100
F393        F  0.23995169  0.04044543  0.86408374    -0.13200
F394        F  0.38057093  0.07050775  0.93142173    -0.13700
F395        F  0.28446713  0.10556500  0.91216547    -0.16000
F396        F  0.33522678  0.00458560  0.88341905    -0.14500
F397        F  0.31164552  0.01188828  0.78766247    -0.14500
F398        F  0.16314783  0.90706064  0.84109829    -0.16000
C399        C  0.53234465  0.38380188  0.93881212     0.14100
C400        C  0.57164848  0.39534974  0.94014030     0.01100
C401        C  0.58227420  0.36749257  0.94275534     0.16000
C402        C  0.55412082  0.32869996  0.94655721     0.25500
C403        C  0.51477903  0.31705544  0.94713876    -0.40900
C404        C  0.50395332  0.34470136  0.94171420     0.32500
C405        C  0.60207515  0.43596802  0.94615684     0.01100
F406        F  0.62015700  0.37821208  0.94468372    -0.13200
F407        F  0.46612277  0.33414149  0.94275776    -0.13700
C408        C  0.61132372  0.45081200  0.99000345     0.16000
C409        C  0.64683942  0.48393708  0.99907049     0.25500
C410        C  0.67326771  0.50324506  0.96419221    -0.40800
C411        C  0.66224411  0.49062903  0.91956651     0.32400
C412        C  0.62698325  0.45675091  0.91068303     0.14100
F413        F  0.58747590  0.43115081  0.02466859    -0.13200
F414        F  0.68711704  0.50883506  0.88525422    -0.13700
F415        F  0.65642371  0.49581291  0.04239645    -0.16000
F416        F  0.61844340  0.44265657  0.86809028    -0.14500
F417        F  0.52161096  0.41043215  0.93699974    -0.14500
F418        F  0.56534811  0.30255649  0.95123052    -0.16000
C419        C  0.61937437  0.14016119  0.94397467     0.14100
C420        C  0.61032962  0.16753476  0.92923595     0.01100
C421        C  0.63977254  0.20305479  0.91263872     0.16000
C422        C  0.67826904  0.21282039  0.91589303     0.25500
C423        C  0.68748527  0.18684510  0.93470833    -0.40900
C424        C  0.65791668  0.14969089  0.94616998     0.32500
C425        C  0.57257864  0.16291968  0.93970588     0.01100
F426        F  0.63159838  0.22975732  0.89772599    -0.13200
F427        F  0.66658626  0.12388472  0.96291624    -0.13700
C428        C  0.56325648  0.16388904  0.98490340     0.16000
C429        C  0.53222156  0.16830289  0.99584550     0.25500
C430        C  0.51007688  0.17211453  0.96159278    -0.40800
C431        C  0.51784971  0.16823161  0.91627967     0.32400
C432        C  0.54902233  0.16389568  0.90550327     0.14100
F433        F  0.58628809  0.16387282  0.01848855    -0.13200
F434        F  0.49636845  0.17026252  0.88218417    -0.13700
F435        F  0.52584200  0.17168748  0.03991822    -0.16000
F436        F  0.55741597  0.16256487  0.86163750    -0.14500
F437        F  0.59118998  0.10545633  0.95938904    -0.14500
F438        F  0.70672531  0.24862086  0.90387237    -0.16000
C439        C  0.98374159  0.61773778  0.22396929     0.14100
C440        C  0.94574962  0.59047852  0.21102876     0.01100
C441        C  0.93006007  0.55184378  0.22368837     0.16000
C442        C  0.95198443  0.54064591  0.24890826     0.25500
C443        C  0.99023917  0.56780766  0.26130762    -0.40900
C444        C  0.00585718  0.60651387  0.24876053     0.32500
C445        C  0.92238729  0.60189268  0.18385477     0.01100
F446        F  0.89390554  0.52465626  0.21014706    -0.13200
F447        F  0.04255530  0.63357585  0.26065521    -0.13700
C448        C  0.93514140  0.61918309  0.14143306     0.16000
C449        C  0.91096689  0.62591403  0.11382357     0.25500
C450        C  0.87346385  0.61481481  0.12798261    -0.40800
C451        C  0.86169801  0.59959287  0.17147128     0.32400
C452        C  0.88604022  0.59342015  0.19921756     0.14100
F453        F  0.97004149  0.62740542  0.12560440    -0.13200
F454        F  0.82622232  0.58991914  0.18682726    -0.13700
F455        F  0.92321361  0.64071687  0.07207831    -0.16000
F456        F  0.87376374  0.57827507  0.24082857    -0.14500
F457        F  0.99938171  0.65529239  0.21276055    -0.14500
F458        F  0.93640026  0.50291117  0.25920321    -0.16000
C459        C  0.97542579  0.39471079  0.18826828     0.14100
C460        C  0.95020921  0.36046729  0.21068395     0.01100
C461        C  0.94873983  0.36006346  0.25785704     0.16000
C462        C  0.97155123  0.39393573  0.28235425     0.25500
C463        C  0.99597495  0.42878558  0.25978856    -0.40900
C464        C  0.99819382  0.42845700  0.21241894     0.32500
C465        C  0.92324233  0.32641860  0.18397527     0.01100
F466        F  0.92465505  0.32699921  0.28005060    -0.13200
F467        F  0.02164965  0.46098980  0.18895883    -0.13700
C468        C  0.93736689  0.31020716  0.15371598     0.16000
C469        C  0.91251284  0.28257436  0.12261013     0.25500
C470        C  0.87294795  0.27074966  0.12122877    -0.40800
C471        C  0.85870976  0.28592690  0.15326686     0.32400
C472        C  0.88368616  0.31349474  0.18426143     0.14100
F473        F  0.97560907  0.32231081  0.15321605    -0.13200
F474        F  0.82095657  0.27570288  0.15338199    -0.13700
F475        F  0.92762562  0.26862130  0.09285939    -0.16000
F476        F  0.86965234  0.32950058  0.21262215    -0.14500
F477        F  0.97659907  0.39588397  0.14258991    -0.14500
F478        F  0.96872677  0.39270851  0.32789655    -0.16000
C479        C  0.06809828  0.62813266  0.53058406     0.14100
C480        C  0.05548422  0.65306488  0.51686363     0.01100
C481        C  0.03610721  0.64665107  0.47528820     0.16000
C482        C  0.03340348  0.61869060  0.44575120     0.25500
C483        C  0.04951754  0.59637753  0.45777080    -0.40900
C484        C  0.06484469  0.59977995  0.50132001     0.32500
C485        C  0.06789180  0.68900488  0.54206837     0.01100
F486        F  0.02220782  0.66933431  0.46202314    -0.13200
F487        F  0.07831329  0.57677822  0.51475809    -0.13700
C488        C  0.08922615  0.72430170  0.51965205     0.16000
C489        C  0.10274328  0.75873228  0.54263289     0.25500
C490        C  0.09607585  0.75887492  0.58911071    -0.40800
C491        C  0.07529301  0.72346893  0.61186984     0.32400
C492        C  0.06103723  0.68881211  0.58840434     0.14100
F493        F  0.09826570  0.72557672  0.47549186    -0.13200
F494        F  0.06850698  0.72225128  0.65668891    -0.13700
F495        F  0.12335817  0.79197089  0.51921787    -0.16000
F496        F  0.04039177  0.65510051  0.61088560    -0.14500
F497        F  0.08649194  0.63320172  0.57068354    -0.14500
F498        F  0.01811790  0.61583039  0.40403849    -0.16000
C499        C  0.06324006  0.36249966  0.56316241     0.14100
C500        C  0.09359401  0.39453284  0.54151053     0.01100
C501        C  0.13169435  0.40290897  0.54789514     0.16000
C502        C  0.13924517  0.37895115  0.57433507     0.25500
C503        C  0.10872378  0.34584367  0.59432691    -0.40900
C504        C  0.07070118  0.33810441  0.58907749     0.32500
C505        C  0.08552513  0.41778440  0.50980241     0.01100
F506        F  0.16154312  0.43392349  0.52764237    -0.13200
F507        F  0.04080403  0.30682443  0.60883803    -0.13700
C508        C  0.06952631  0.43940093  0.52481467     0.16000
C509        C  0.06347723  0.46243220  0.49457052     0.25500
C510        C  0.07370252  0.46429960  0.44913897    -0.40800
C511        C  0.08915430  0.44224552  0.43413307     0.32400
C512        C  0.09473069  0.41896469  0.46411273     0.14100
F513        F  0.06137470  0.43945354  0.56903347    -0.13200
F514        F  0.09908835  0.44349753  0.39032694    -0.13700
F515        F  0.04985379  0.48460431  0.51010465    -0.16000
F516        F  0.10938306  0.39766670  0.44861088    -0.14500
F517        F  0.02624009  0.35400556  0.55765608    -0.14500
F518        F  0.17622229  0.38697270  0.57828657    -0.16000
C519        C  0.44909781  0.04779302  0.18976978     0.14100
C520        C  0.42126026  0.05497506  0.20731313     0.01100
C521        C  0.40658097  0.04162954  0.25058973     0.16000
C522        C  0.41860907  0.02005473  0.27523494     0.25500
C523        C  0.44521918  0.01139567  0.25661774    -0.40900
C524        C  0.46077330  0.02606837  0.21393072     0.32500
C525        C  0.40831568  0.07661340  0.17963145     0.01100
F526        F  0.37986976  0.04853645  0.26835665    -0.13200
F527        F  0.48772790  0.01976379  0.19556612    -0.13700
C528        C  0.39317707  0.06330101  0.13625183     0.16000
C529        C  0.38868115  0.08709338  0.10595208     0.25500
C530        C  0.39922853  0.12454438  0.11867468    -0.40800
C531        C  0.41152201  0.13677375  0.16318514     0.32400
C532        C  0.41594142  0.11289058  0.19354874     0.14100
F533        F  0.38495302  0.02800657  0.12241845    -0.13200
F534        F  0.42059466  0.17240004  0.17672463    -0.13700
F535        F  0.37720665  0.07470784  0.06308662    -0.16000
F536        F  0.43027824  0.12624965  0.23538510    -0.14500
F537        F  0.46525601  0.06214314  0.14906203    -0.14500
F538        F  0.40321148  0.00650144  0.31642439    -0.16000
C539        C  0.65977276  0.07851210  0.12051136     0.14100
C540        C  0.67236201  0.07208820  0.16198248     0.01100
C541        C  0.71221399  0.08992417  0.17077103     0.16000
C542        C  0.73908913  0.11475398  0.13889870     0.25500
C543        C  0.72635980  0.12250758  0.09807308    -0.40900
C544        C  0.68639152  0.10346308  0.08901962     0.32500
C545        C  0.64330114  0.04709094  0.19570402     0.01100
F546        F  0.72501099  0.08355515  0.21035032    -0.13200
F547        F  0.67289247  0.10943925  0.04979401    -0.13700
C548        C  0.61748512  0.00833481  0.18557486     0.16000
C549        C  0.58619294  0.98574787  0.21356828     0.25500
C550        C  0.57960159  0.00158333  0.25240021    -0.40800
C551        C  0.60676571  0.04009359  0.26368272     0.32400
C552        C  0.63838066  0.06258679  0.23556912     0.14100
F553        F  0.62179867  0.99266485  0.14739365    -0.13200
F554        F  0.60223377  0.05639389  0.30112543    -0.13700
F555        F  0.56132104  0.94879216  0.20102882    -0.16000
F556        F  0.66300893  0.10010984  0.24596444    -0.14500
F557        F  0.62142558  0.06155667  0.11110889    -0.14500
F558        F  0.77736555  0.13260553  0.14895843    -0.16000
C559        C  0.27679548  0.92241932  0.51604002     0.14100
C560        C  0.30651611  0.91920117  0.53626991     0.01100
C561        C  0.30342380  0.90853487  0.58179203     0.16000
C562        C  0.27038230  0.89995002  0.60631121     0.25500
C563        C  0.23990453  0.90182293  0.58555448    -0.40900
C564        C  0.24386069  0.91395349  0.54041643     0.32500
C565        C  0.33815637  0.92242883  0.50814579     0.01100
F566        F  0.33205834  0.90563525  0.60212216    -0.13200
F567        F  0.21478126  0.91531967  0.51891381    -0.13700
C568        C  0.36645330  0.95786806  0.49005372     0.16000
C569        C  0.39393716  0.95969341  0.45981307     0.25500
C570        C  0.39301567  0.92591614  0.44668682    -0.40800
C571        C  0.36482918  0.89058474  0.46564891     0.32400
C572        C  0.33788325  0.88896687  0.49609226     0.14100
F573        F  0.36697350  0.99053576  0.50113250    -0.13200
F574        F  0.36311087  0.85730122  0.45461756    -0.13700
F575        F  0.42026915  0.99415648  0.44196799    -0.16000
F576        F  0.31040480  0.85433706  0.51255070    -0.14500
F577        F  0.27868507  0.93158292  0.47177776    -0.14500
F578        F  0.26808525  0.88962017  0.65020328    -0.16000
C579        C  0.65301234  0.91839438  0.51582980     0.14100
C580        C  0.62463307  0.92360161  0.53585275     0.01100
C581        C  0.62063748  0.92085500  0.58289511     0.16000
C582        C  0.64284416  0.91062647  0.60920087     0.25500
C583        C  0.66984456  0.90329024  0.58892416    -0.40900
C584        C  0.67563313  0.90872268  0.54208211     0.32500
C585        C  0.59706057  0.92847159  0.50743282     0.01100
F586        F  0.59438076  0.92709313  0.60329514    -0.13200
F587        F  0.70257416  0.90375920  0.52126320    -0.13700
C588        C  0.55719332  0.90239221  0.51141456     0.16000
C589        C  0.53090668  0.90496097  0.48302906     0.25500
C590        C  0.54390546  0.93327858  0.44914378    -0.40800
C591        C  0.58392698  0.95989702  0.44575658     0.32400
C592        C  0.61016764  0.95756737  0.47476005     0.14100
F593        F  0.54365934  0.87324357  0.54170114    -0.13200
F594        F  0.59795046  0.98763319  0.41366951    -0.13700
F595        F  0.49269307  0.87903355  0.48840344    -0.16000
F596        F  0.64848691  0.98359658  0.47065304    -0.14500
F597        F  0.65747449  0.92059756  0.47046790    -0.14500
F598        F  0.63656590  0.90629163  0.65421987    -0.16000
C599        C  0.30054946  0.76747665  0.25506123     0.14100
C600        C  0.27094217  0.77267165  0.27139521     0.01100
C601        C  0.28001075  0.80941987  0.28569810     0.16000
C602        C  0.31854476  0.83962019  0.28743028     0.25500
C603        C  0.34820963  0.83320080  0.27507080    -0.40900
C604        C  0.33894240  0.79753224  0.25714363     0.32500
C605        C  0.23241089  0.73856380  0.28014492     0.01100
F606        F  0.25178972  0.81531782  0.30062659    -0.13200
F607        F  0.36737809  0.79111459  0.24447916    -0.13700
C608        C  0.21932567  0.72920188  0.32467032     0.16000
C609        C  0.18702303  0.69344283  0.33480041     0.25500
C610        C  0.16744549  0.66602963  0.30057025    -0.40800
C611        C  0.17902692  0.67668644  0.25549948     0.32400
C612        C  0.21122735  0.71259077  0.24549475     0.14100
F613        F  0.23966155  0.75352599  0.35894816    -0.13200
F614        F  0.16029258  0.65184583  0.22107015    -0.13700
F615        F  0.17664253  0.68493717  0.37856279    -0.16000
F616        F  0.22278815  0.72136940  0.20208863    -0.14500
F617        F  0.29273693  0.73237460  0.24099667    -0.14500
F618        F  0.32713545  0.87403074  0.30485719    -0.16000
C619        C  0.65349128  0.58843826  0.13843986     0.14100
C620        C  0.66507387  0.61080333  0.17788540     0.01100
C621        C  0.70486223  0.63464634  0.18714501     0.16000
C622        C  0.73238722  0.63493647  0.15816607     0.25500
C623        C  0.72043480  0.61131360  0.11960589    -0.40900
C624        C  0.68073794  0.58902784  0.10952101     0.32500
C625        C  0.63490474  0.60651226  0.20984271     0.01100
F626        F  0.71703059  0.65729481  0.22437276    -0.13200
F627        F  0.66806093  0.56738709  0.07151532    -0.13700
C628        C  0.63400179  0.59372383  0.25416533     0.16000
C629        C  0.60060904  0.57998850  0.28023846     0.25500
C630        C  0.56736423  0.57815700  0.26202458    -0.40800
C631        C  0.56971941  0.59435059  0.21932627     0.32400
C632        C  0.60331272  0.60887595  0.19384997     0.14100
F633        F  0.66421309  0.59160712  0.27099601    -0.13200
F634        F  0.53898786  0.59500948  0.20146316    -0.13700
F635        F  0.59991935  0.56581519  0.32188152    -0.16000
F636        F  0.60420225  0.62328622  0.15226726    -0.14500
F637        F  0.61544634  0.56447904  0.12870060    -0.14500
F638        F  0.77048811  0.65706358  0.16878737    -0.16000
C639        C  0.44313153  0.34385855  0.13460267     0.14100
C640        C  0.41747103  0.33120399  0.17084734     0.01100
C641        C  0.39002585  0.29200161  0.17535211     0.16000
C642        C  0.38878095  0.26548076  0.14435852     0.25500
C643        C  0.41504750  0.27794883  0.10832423    -0.40900
C644        C  0.44195791  0.31756230  0.10353744     0.32500
C645        C  0.41988352  0.35936742  0.20383511     0.01100
F646        F  0.36502129  0.27940139  0.21031394    -0.13200
F647        F  0.46702405  0.33100949  0.06859544    -0.13700
C648        C  0.39456973  0.37321710  0.20068779     0.16000
C649        C  0.40035579  0.40393434  0.22762808     0.25500
C650        C  0.43196722  0.42159034  0.25799275    -0.40800
C651        C  0.45553090  0.40550162  0.26324311     0.32400
C652        C  0.44963122  0.37483975  0.23610224     0.14100
F653        F  0.36528761  0.35810584  0.16999983    -0.13200
F654        F  0.48516289  0.42014322  0.29344844    -0.13700
F655        F  0.37561394  0.41701190  0.22280375    -0.16000
F656        F  0.47373885  0.36094959  0.24027255    -0.14500
F657        F  0.46934716  0.38185634  0.12931800    -0.14500
F658        F  0.36272418  0.22757400  0.15052756    -0.16000
C659        C  0.63854397  0.70314291  0.54954220     0.14100
C660        C  0.59871468  0.68820817  0.55317616     0.01100
C661        C  0.58516783  0.70471215  0.58386604     0.16000
C662        C  0.61119832  0.73713358  0.60879757     0.25500
C663        C  0.65139803  0.75381853  0.60315545    -0.40900
C664        C  0.66468624  0.73555067  0.57428218     0.32500
C665        C  0.57187385  0.65865075  0.52100162     0.01100
F666        F  0.54663952  0.69020700  0.58841387    -0.13200
F667        F  0.70303197  0.74987225  0.56824757    -0.13700
C668        C  0.56802112  0.62229173  0.51927794     0.16000
C669        C  0.54463095  0.59565769  0.48626798     0.25500
C670        C  0.52475878  0.60510598  0.45434104    -0.40800
C671        C  0.52870379  0.64169513  0.45663152     0.32400
C672        C  0.55196480  0.66804284  0.48958295     0.14100
F673        F  0.58677943  0.61257306  0.54976052    -0.13200
F674        F  0.51060446  0.65252089  0.42652906    -0.13700
F675        F  0.54123694  0.56061380  0.48597865    -0.16000
F676        F  0.55603572  0.70339820  0.48994078    -0.14500
F677        F  0.65225331  0.68782617  0.51973738    -0.14500
F678        F  0.59684868  0.75301354  0.63686857    -0.16000
C679        C  0.26662199  0.33782494  0.51103689     0.14100
C680        C  0.30285560  0.35792574  0.53233592     0.01100
C681        C  0.30538274  0.35565477  0.57925087     0.16000
C682        C  0.27190633  0.33632845  0.60498946     0.25500
C683        C  0.23523951  0.31897321  0.58410740    -0.40900
C684        C  0.23306307  0.31835526  0.53657847     0.32500
C685        C  0.33663828  0.38677046  0.50685136     0.01100
F686        F  0.34034172  0.37416972  0.60028832    -0.13200
F687        F  0.19850895  0.30070251  0.51459648    -0.13700
C688        C  0.35257334  0.42567643  0.51761272     0.16000
C689        C  0.38102099  0.45407637  0.49074525     0.25500
C690        C  0.39381946  0.44419276  0.45190069    -0.40800
C691        C  0.37907617  0.40505651  0.44222691     0.32400
C692        C  0.35051036  0.37652013  0.46950146     0.14100
F693        F  0.33878927  0.43630738  0.55274295    -0.13200
F694        F  0.39065983  0.39433454  0.40515309    -0.13700
F695        F  0.39499233  0.49136017  0.50211529    -0.16000
F696        F  0.33550189  0.33897207  0.45870344    -0.14500
F697        F  0.26348809  0.33961978  0.46565837    -0.14500
F698        F  0.27558197  0.33620599  0.65043927    -0.16000
C699        C  0.46312414  0.76525908  0.24509509     0.14100
C700        C  0.48080770  0.75344859  0.27672260     0.01100
C701        C  0.50155398  0.77757995  0.31293191     0.16000
C702        C  0.50216514  0.81194370  0.31941503     0.25500
C703        C  0.48209291  0.82269227  0.28951132    -0.40900
C704        C  0.46412725  0.79985640  0.25104962     0.32500
C705        C  0.47241606  0.71366310  0.27641715     0.01100
F706        F  0.51878624  0.76642524  0.34384979    -0.13200
F707        F  0.44509996  0.80943679  0.22080519    -0.13700
C708        C  0.50120820  0.70529508  0.26649314     0.16000
C709        C  0.49396975  0.66790374  0.27206468     0.25500
C710        C  0.45801343  0.63874813  0.28839838    -0.40800
C711        C  0.42877106  0.64708987  0.29647011     0.32400
C712        C  0.43593550  0.68421414  0.29038113     0.14100
F713        F  0.53654384  0.73355450  0.25264338    -0.13200
F714        F  0.39334997  0.61943570  0.31101473    -0.13700
F715        F  0.52271722  0.66074854  0.26388619    -0.16000
F716        F  0.40778312  0.69189610  0.30019129    -0.14500
F717        F  0.44298728  0.74215930  0.20985386    -0.14500
F718        F  0.52093840  0.83375370  0.35604139    -0.16000
C719        C  0.28213946  0.50324619  0.25190612     0.14100
C720        C  0.25640433  0.49376892  0.28760650     0.01100
C721        C  0.26367173  0.48125138  0.32850194     0.16000
C722        C  0.29809364  0.48137840  0.33496688     0.25500
C723        C  0.32590504  0.49435484  0.30048335    -0.40900
C724        C  0.31647190  0.50326458  0.25803862     0.32500
C725        C  0.22668105  0.50439417  0.28542997     0.01100
F726        F  0.23897092  0.47214391  0.36344834    -0.13200
F727        F  0.34165288  0.51491683  0.22328710    -0.13700
C728        C  0.18738538  0.47661289  0.28009335     0.16000
C729        C  0.15954650  0.48732271  0.28267483     0.25500
C730        C  0.17091771  0.52579798  0.29150950    -0.40800
C731        C  0.21042724  0.55364953  0.29506331     0.32400
C732        C  0.23805263  0.54302254  0.29184696     0.14100
F733        F  0.17605830  0.43916907  0.27362571    -0.13200
F734        F  0.22228378  0.59115144  0.30243330    -0.13700
F735        F  0.12154147  0.45986658  0.27920050    -0.16000
F736        F  0.27600598  0.57025245  0.29687815    -0.14500
F737        F  0.27532891  0.51531057  0.21210329    -0.14500
F738        F  0.30522743  0.47147347  0.37603291    -0.16000
loop_ 
_geom_bond_atom_site_label_1 
_geom_bond_atom_site_label_2 
_geom_bond_distance 
_geom_bond_site_symmetry_2 
_ccdc_geom_bond_type 
O1          Cr19   1.960       .  S
O1            C9   1.258       .  A
O2          Cr19   1.998       .  S
O2            C3   1.264       .  A
C3            O4   1.260       .  A
C3          C710   1.474       .  S
O4          Cr20   1.979       .  S
O5          Cr20   2.003       .  S
O5            C6   1.267       .  A
C6            O7   1.262       .  A
C6          C630   1.485       .  S
O7          Cr21   1.986       .  S
O8          Cr21   2.022       .  S
O8            C9   1.270       .  A
C9          C670   1.485       .  S
O10         Cr19   1.991       .  S
O10          C18   1.262       .  A
O11         Cr19   1.975       .  S
O11          C12   1.260       .  A
C12          O13   1.267       .  A
C12         C723   1.487       .  S
O13         Cr20   2.008       .  S
O14         Cr20   1.970       .  S
O14          C15   1.260       .  A
C15          O16   1.269       .  A
C15         C650   1.488       .  S
O16         Cr21   2.015       .  S
O17         Cr21   1.983       .  S
O17          C18   1.260       .  A
C18         C690   1.479       .  S
Cr19         O22   1.761       .  S
Cr20         O22   1.762       .  S
Cr21         O22   1.770       .  S
O23         Cr41   1.959       .  S
O23          C31   1.258       .  A
O24         Cr41   2.006       .  S
O24          C25   1.266       .  A
C25          O26   1.259       .  A
C25         C603   1.464       .  S
O26         Cr42   1.981       .  S
O27         Cr42   1.994       .  S
O27          C28   1.263       .  A
C28          O29   1.260       .  A
C28         C523   1.477   1_565  S
O29         Cr43   1.982       .  S
O30         Cr43   2.037       .  S
O30          C31   1.273       .  A
C31         C570   1.487       .  S
O32         Cr41   1.999       .  S
O32          C40   1.263       .  A
O33         Cr41   1.973       .  S
O33          C34   1.259       .  A
C34          O35   1.265       .  A
C34         C703   1.480       .  S
O35         Cr42   2.007       .  S
O36         Cr42   1.961       .  S
O36          C37   1.259       .  A
C37          O38   1.274       .  A
C37         C550   1.492   1_565  S
O38         Cr43   2.037       .  S
O39         Cr43   1.980       .  S
O39          C40   1.259       .  A
C40         C590   1.487       .  S
Cr41         O44   1.760       .  S
Cr42         O44   1.763       .  S
Cr43         O44   1.770       .  S
O45         Cr63   1.962       .  S
O45          C53   1.257       .  A
O46         Cr63   2.002       .  S
O46          C47   1.266       .  A
C47          O48   1.260       .  A
C47         C730   1.470       .  S
O48         Cr64   1.978       .  S
O49         Cr64   1.993       .  S
O49          C50   1.262       .  A
C50          O51   1.259       .  A
C50         C463   1.482   1_455  S
O51         Cr65   1.980       .  S
O52         Cr65   2.028       .  S
O52          C53   1.270       .  A
C53         C510   1.472       .  S
O54         Cr63   2.003       .  S
O54          C62   1.264       .  A
O55         Cr63   1.982       .  S
O55          C56   1.262       .  A
C56          O57   1.265       .  A
C56         C610   1.487       .  S
O57         Cr64   2.005       .  S
O58         Cr64   1.962       .  S
O58          C59   1.259       .  A
C59          O60   1.272       .  A
C59         C443   1.477   1_455  S
O60         Cr65   2.025       .  S
O61         Cr65   1.971       .  S
O61          C62   1.258       .  A
C62         C483   1.471       .  S
Cr63         O66   1.759       .  S
Cr64         O66   1.760       .  S
Cr65         O66   1.768       .  S
O67         Cr85   2.003       .  S
O67          C75   1.263       .  A
O68         Cr85   1.977       .  S
O68          C69   1.262   1_554  A
C69          O70   1.266       .  A
C69         C430   1.482       .  S
O70         Cr86   2.003       .  S
O71         Cr86   1.974       .  S
O71          C72   1.259       .  A
C72          O73   1.267       .  A
C72         C390   1.472       .  S
O73         Cr87   2.009   1_556  S
O74         Cr87   1.980       .  S
O74          C75   1.259       .  A
C75         C530   1.472       .  S
O76         Cr85   1.966       .  S
O76          C84   1.260       .  A
O77         Cr85   2.003   1_556  S
O77          C78   1.264       .  A
C78          O79   1.259       .  A
C78         C403   1.472       .  S
O79         Cr86   1.983       .  S
O80         Cr86   1.999       .  S
O80          C81   1.265       .  A
C81          O82   1.261       .  A
C81         C370   1.474       .  S
O82         Cr87   1.978   1_556  S
O83         Cr87   2.018       .  S
O83          C84   1.270       .  A
C84         C643   1.482       .  S
Cr85         O88   1.763   1_554  S
Cr86         O88   1.764       .  S
Cr87         O88   1.768   1_554  S
O89        Cr107   2.004       .  S
O89          C97   1.265       .  A
O90        Cr107   1.961       .  S
O90          C91   1.258   1_554  A
C91          O92   1.268       .  A
C91         C343   1.479       .  S
O92        Cr108   2.016       .  S
O93        Cr108   1.964       .  S
O93          C94   1.258       .  A
C94          O95   1.270       .  A
C94         C303   1.476       .  S
O95        Cr109   2.019   1_556  S
O96        Cr109   1.973       .  S
O96          C97   1.259       .  A
C97         C470   1.484       .  S
O98        Cr107   1.965       .  S
O98         C106   1.258       .  A
O99        Cr107   2.003   1_556  S
O99         C100   1.264       .  A
C100        O101   1.255       .  A
C100        C423   1.460       .  S
O101       Cr108   1.974       .  S
O102       Cr108   1.997       .  S
O102        C103   1.265       .  A
C103        O104   1.262       .  A
C103        C323   1.479       .  S
O104       Cr109   1.973   1_556  S
O105       Cr109   2.033       .  S
O105        C106   1.271       .  A
C106        C543   1.485       .  S
Cr107       O110   1.758   1_554  S
Cr108       O110   1.769       .  S
Cr109       O110   1.766   1_554  S
O111       Cr129   1.964       .  S
O111        C119   1.260       .  A
O112       Cr129   1.998       .  S
O112        C113   1.264   1_554  A
C113        O114   1.261       .  A
C113        C410   1.476       .  S
O114       Cr130   1.987       .  S
O115       Cr130   1.994       .  S
O115        C116   1.264       .  A
C116        O117   1.261       .  A
C116        C270   1.480       .  S
O117       Cr131   1.979   1_556  S
O118       Cr131   2.027       .  S
O118        C119   1.270       .  A
C119        C623   1.483       .  S
O120       Cr129   1.997       .  S
O120        C128   1.262       .  A
O121       Cr129   1.980       .  S
O121        C122   1.262   1_554  A
C122        O123   1.264       .  A
C122        C350   1.477       .  S
O123       Cr130   2.000       .  S
O124       Cr130   1.976       .  S
O124        C125   1.260       .  A
C125        O126   1.269       .  A
C125        C283   1.492       .  S
O126       Cr131   2.015   1_556  S
O127       Cr131   1.985       .  S
O127        C128   1.259       .  A
C128        C450   1.476       .  S
Cr129       O132   1.761       .  S
Cr130       O132   1.769   1_556  S
Cr131       O132   1.770       .  S
O133       Cr151   1.998       .  S
O133        C141   1.262       .  A
O134       Cr151   1.979       .  S
O134        C135   1.262       .  A
C135        O136   1.268       .  A
C135        C243   1.487       .  S
O136       Cr152   2.009       .  S
O137       Cr152   1.966       .  S
O137        C138   1.261       .  A
C138        O139   1.270       .  A
C138        C663   1.486       .  S
O139       Cr153   2.014       .  S
O140       Cr153   1.982       .  S
O140        C141   1.259       .  A
C141        C263   1.477       .  S
O142       Cr151   1.952       .  S
O142        C150   1.257       .  A
O143       Cr151   1.998       .  S
O143        C144   1.263       .  A
C144        O145   1.260       .  A
C144        C223   1.473       .  S
O145       Cr152   1.984       .  S
O146       Cr152   1.998       .  S
O146        C147   1.263       .  A
C147        O148   1.259       .  A
C147        C583   1.485       .  S
O148       Cr153   1.982       .  S
O149       Cr153   2.019       .  S
O149        C150   1.270       .  A
C150        C330   1.483       .  S
Cr151       O154   1.763       .  S
Cr152       O154   1.762       .  S
Cr153       O154   1.767       .  S
O155       Cr173   2.002       .  S
O155        C163   1.264       .  A
O156       Cr173   1.974       .  S
O156        C157   1.261       .  A
C157        O158   1.268       .  A
C157        C203   1.490       .  S
O158       Cr174   2.019       .  S
O159       Cr174   1.971       .  S
O159        C160   1.262       .  A
C160        O161   1.271       .  A
C160        C563   1.482       .  S
O161       Cr175   2.021       .  S
O162       Cr175   1.972       .  S
O162        C163   1.257       .  A
C163        C383   1.470       .  S
O164       Cr173   1.965       .  S
O164        C172   1.259       .  A
O165       Cr173   2.003       .  S
O165        C166   1.264       .  A
C166        O167   1.259       .  A
C166        C250   1.467       .  S
O167       Cr174   1.986       .  S
O168       Cr174   1.993       .  S
O168        C169   1.263       .  A
C169        O170   1.260       .  A
C169        C490   1.482       .  S
O170       Cr175   1.981       .  S
O171       Cr175   2.034       .  S
O171        C172   1.271       .  A
C172        C290   1.481       .  S
Cr173       O176   1.760       .  S
Cr174       O176   1.765       .  S
Cr175       O176   1.769       .  S
O177       Cr195   1.992       .  S
O177        C185   1.262       .  A
O178       Cr195   1.975       .  S
O178        C179   1.259       .  A
C179        O180   1.267       .  A
C179        C230   1.481   1_455  S
O180       Cr196   2.002       .  S
O181       Cr196   1.980       .  S
O181        C182   1.261       .  A
C182        O183   1.267       .  A
C182        C503   1.477       .  S
O183       Cr197   2.012       .  S
O184       Cr197   1.993       .  S
O184        C185   1.264       .  A
C185        C310   1.488       .  S
O186       Cr195   1.967       .  S
O186        C194   1.258       .  A
O187       Cr195   1.998       .  S
O187        C188   1.264       .  A
C188        O189   1.261       .  A
C188        C210   1.484       .  S
O189       Cr196   1.988       .  S
O190       Cr196   1.996       .  S
O190        C191   1.264       .  A
C191        O192   1.264       .  A
C191        C683   1.483       .  S
O192       Cr197   1.980       .  S
O193       Cr197   2.021       .  S
O193        C194   1.270       .  A
C194        C363   1.488       .  S
Cr195       O198   1.758       .  S
Cr196       O198   1.763       .  S
Cr197       O198   1.767       .  S
C199        C200   1.402       .  A
C199        C204   1.396       .  A
C199        F217   1.358       .  S
C200        C205   1.476       .  S
C200        C201   1.402       .  A
C201        C202   1.403       .  A
C201        F206   1.358       .  S
C202        C203   1.414   1_545  A
C202        F218   1.358   1_545  S
C203        C204   1.412   1_565  A
C204        F207   1.358       .  S
C205        C208   1.404       .  A
C205        C212   1.401       .  A
C208        C209   1.406       .  A
C208        F213   1.357       .  S
C209        C210   1.412       .  A
C209        F215   1.358       .  S
C210        C211   1.409       .  A
C211        C212   1.392       .  A
C211        F214   1.358       .  S
C212        F216   1.358       .  S
C219        C220   1.402       .  A
C219        C224   1.391   1_545  A
C219        F237   1.359       .  S
C220        C225   1.470       .  S
C220        C221   1.402       .  A
C221        C222   1.402       .  A
C221        F226   1.357       .  S
C222        C223   1.409   1_545  A
C222        F238   1.358   1_545  S
C223        C224   1.407       .  A
C224        F227   1.358       .  S
C225        C228   1.399       .  A
C225        C232   1.403       .  A
C228        C229   1.396       .  A
C228        F233   1.357       .  S
C229        C230   1.411       .  A
C229        F235   1.358   1_655  S
C230        C231   1.411       .  A
C231        C232   1.396       .  A
C231        F234   1.358       .  S
C232        F236   1.358       .  S
C239        C240   1.401       .  A
C239        C244   1.396       .  A
C239        F257   1.358       .  S
C240        C245   1.477       .  S
C240        C241   1.405       .  A
C241        C242   1.401       .  A
C241        F246   1.358       .  S
C242        C243   1.412       .  A
C242        F258   1.358       .  S
C243        C244   1.412       .  A
C244        F247   1.358       .  S
C245        C248   1.406       .  A
C245        C252   1.405       .  A
C248        C249   1.394   1_655  A
C248        F253   1.358       .  S
C249        C250   1.401       .  A
C249        F255   1.358       .  S
C250        C251   1.405   1_455  A
C251        C252   1.403       .  A
C251        F254   1.357       .  S
C252        F256   1.358       .  S
C259        C260   1.406       .  A
C259        C264   1.398       .  A
C259        F277   1.358       .  S
C260        C265   1.477       .  S
C260        C261   1.403       .  A
C261        C262   1.397       .  A
C261        F266   1.358       .  S
C262        C263   1.409       .  A
C262        F278   1.358       .  S
C263        C264   1.407       .  A
C264        F267   1.358       .  S
C265        C268   1.403       .  A
C265        C272   1.405       .  A
C268        C269   1.392       .  A
C268        F273   1.359       .  S
C269        C270   1.409       .  A
C269        F275   1.358       .  S
C270        C271   1.410       .  A
C271        C272   1.401       .  A
C271        F274   1.358       .  S
C272        F276   1.358       .  S
C279        C280   1.402       .  A
C279        C284   1.400       .  A
C279        F297   1.358       .  S
C280        C285   1.479   1_655  S
C280        C281   1.402       .  A
C281        C282   1.401       .  A
C281        F286   1.358       .  S
C282        C283   1.413       .  A
C282        F298   1.358       .  S
C283        C284   1.414       .  A
C284        F287   1.358       .  S
C285        C288   1.402   1_455  A
C285        C292   1.406       .  A
C288        C289   1.395   1_655  A
C288        F293   1.358       .  S
C289        C290   1.407       .  A
C289        F295   1.356       .  S
C290        C291   1.409       .  A
C291        C292   1.406       .  A
C291        F294   1.358       .  S
C292        F296   1.357       .  S
C299        C300   1.409       .  A
C299        C304   1.398       .  A
C299        F317   1.358   1_655  S
C300        C305   1.486   1_655  S
C300        C301   1.407       .  A
C301        C302   1.399       .  A
C301        F306   1.358       .  S
C302        C303   1.408       .  A
C302        F318   1.358       .  S
C303        C304   1.403       .  A
C304        F307   1.358       .  S
C305        C308   1.403       .  A
C305        C312   1.409       .  A
C308        C309   1.391       .  A
C308        F313   1.359       .  S
C309        C310   1.413       .  A
C309        F315   1.358       .  S
C310        C311   1.410       .  A
C311        C312   1.404       .  A
C311        F314   1.358       .  S
C312        F316   1.358       .  S
C319        C320   1.399       .  A
C319        C324   1.395       .  A
C319        F337   1.358       .  S
C320        C325   1.466       .  S
C320        C321   1.401       .  A
C321        C322   1.395       .  A
C321        F326   1.358       .  S
C322        C323   1.410       .  A
C322        F338   1.358       .  S
C323        C324   1.413       .  A
C324        F327   1.358       .  S
C325        C328   1.397       .  A
C325        C332   1.401   1_545  A
C328        C329   1.391   1_545  A
C328        F333   1.359       .  S
C329        C330   1.415       .  A
C329        F335   1.358       .  S
C330        C331   1.411       .  A
C331        C332   1.399       .  A
C331        F334   1.357       .  S
C332        F336   1.358       .  S
C339        C340   1.404   1_554  A
C339        C344   1.390       .  A
C339        F357   1.359       .  S
C340        C345   1.479       .  S
C340        C341   1.406       .  A
C341        C342   1.402       .  A
C341        F346   1.358       .  S
C342        C343   1.410       .  A
C342        F358   1.358       .  S
C343        C344   1.408   1_556  A
C344        F347   1.358       .  S
C345        C348   1.406       .  A
C345        C352   1.405       .  A
C348        C349   1.396   1_556  A
C348        F353   1.358   1_556  S
C349        C350   1.406   1_554  A
C349        F355   1.358       .  S
C350        C351   1.409       .  A
C351        C352   1.397       .  A
C351        F354   1.358       .  S
C352        F356   1.358       .  S
C359        C360   1.401       .  A
C359        C364   1.402       .  A
C359        F377   1.358       .  S
C360        C365   1.473       .  S
C360        C361   1.400       .  A
C361        C362   1.395       .  A
C361        F366   1.358       .  S
C362        C363   1.413       .  A
C362        F378   1.358       .  S
C363        C364   1.413       .  A
C364        F367   1.358       .  S
C365        C368   1.404       .  A
C365        C372   1.402       .  A
C368        C369   1.399       .  A
C368        F373   1.358       .  S
C369        C370   1.407       .  A
C369        F375   1.358       .  S
C370        C371   1.408       .  A
C371        C372   1.398       .  A
C371        F374   1.358       .  S
C372        F376   1.358       .  S
C379        C380   1.405       .  A
C379        C384   1.399       .  A
C379        F397   1.358   1_565  S
C380        C385   1.474   1_565  S
C380        C381   1.403       .  A
C381        C382   1.394       .  A
C381        F386   1.358       .  S
C382        C383   1.405       .  A
C382        F398   1.358       .  S
C383        C384   1.407       .  A
C384        F387   1.358       .  S
C385        C388   1.404       .  A
C385        C392   1.404       .  A
C388        C389   1.394       .  A
C388        F393   1.358       .  S
C389        C390   1.405       .  A
C389        F395   1.358       .  S
C390        C391   1.408       .  A
C391        C392   1.401       .  A
C391        F394   1.358       .  S
C392        F396   1.358       .  S
C399        C400   1.404       .  A
C399        C404   1.403       .  A
C399        F417   1.357       .  S
C400        C405   1.474       .  S
C400        C401   1.403       .  A
C401        C402   1.394       .  A
C401        F406   1.358       .  S
C402        C403   1.405       .  A
C402        F418   1.358       .  S
C403        C404   1.407       .  A
C404        F407   1.358       .  S
C405        C408   1.402       .  A
C405        C412   1.405       .  A
C408        C409   1.395       .  A
C408        F413   1.358   1_556  S
C409        C410   1.407       .  A
C409        F415   1.358   1_556  S
C410        C411   1.407       .  A
C411        C412   1.403       .  A
C411        F414   1.357       .  S
C412        F416   1.357       .  S
C419        C420   1.405       .  A
C419        C424   1.398       .  A
C419        F437   1.358       .  S
C420        C425   1.473       .  S
C420        C421   1.406       .  A
C421        C422   1.395       .  A
C421        F426   1.358       .  S
C422        C423   1.400       .  A
C422        F438   1.358       .  S
C423        C424   1.402       .  A
C424        F427   1.356       .  S
C425        C428   1.404       .  A
C425        C432   1.400       .  A
C428        C429   1.395       .  A
C428        F433   1.359   1_556  S
C429        C430   1.409       .  A
C429        F435   1.358   1_556  S
C430        C431   1.413       .  A
C431        C432   1.398       .  A
C431        F434   1.358       .  S
C432        F436   1.358       .  S
C439        C440   1.404       .  A
C439        C444   1.398   1_655  A
C439        F457   1.358       .  S
C440        C445   1.480       .  S
C440        C441   1.407       .  A
C441        C442   1.398       .  A
C441        F446   1.358       .  S
C442        C443   1.406       .  A
C442        F458   1.358       .  S
C443        C444   1.409   1_655  A
C444        F447   1.358       .  S
C445        C448   1.407       .  A
C445        C452   1.404       .  A
C448        C449   1.400       .  A
C448        F453   1.358       .  S
C449        C450   1.407       .  A
C449        F455   1.358       .  S
C450        C451   1.407       .  A
C451        C452   1.395       .  A
C451        F454   1.358       .  S
C452        F456   1.358       .  S
C459        C460   1.400       .  A
C459        C464   1.391       .  A
C459        F477   1.358       .  S
C460        C465   1.473       .  S
C460        C461   1.403       .  A
C461        C462   1.400       .  A
C461        F466   1.358       .  S
C462        C463   1.412       .  A
C462        F478   1.358       .  S
C463        C464   1.412       .  A
C464        F467   1.358   1_655  S
C465        C468   1.402       .  A
C465        C472   1.401       .  A
C468        C469   1.397       .  A
C468        F473   1.358       .  S
C469        C470   1.412       .  A
C469        F475   1.358       .  S
C470        C471   1.412       .  A
C471        C472   1.395       .  A
C471        F474   1.358       .  S
C472        F476   1.358       .  S
C479        C480   1.406       .  A
C479        C484   1.396       .  A
C479        F497   1.358       .  S
C480        C485   1.480       .  S
C480        C481   1.408       .  A
C481        C482   1.396       .  A
C481        F486   1.358       .  S
C482        C483   1.405       .  A
C482        F498   1.358       .  S
C483        C484   1.406       .  A
C484        F487   1.358       .  S
C485        C488   1.404       .  A
C485        C492   1.406       .  A
C488        C489   1.390       .  A
C488        F493   1.359       .  S
C489        C490   1.410       .  A
C489        F495   1.358       .  S
C490        C491   1.410       .  A
C491        C492   1.401       .  A
C491        F494   1.358       .  S
C492        F496   1.358       .  S
C499        C500   1.405       .  A
C499        C504   1.401       .  A
C499        F517   1.358       .  S
C500        C505   1.480       .  S
C500        C501   1.405       .  A
C501        C502   1.398       .  A
C501        F506   1.358       .  S
C502        C503   1.407       .  A
C502        F518   1.358       .  S
C503        C504   1.407       .  A
C504        F507   1.358       .  S
C505        C508   1.407       .  A
C505        C512   1.405       .  A
C508        C509   1.403       .  A
C508        F513   1.358       .  S
C509        C510   1.405       .  A
C509        F515   1.358       .  S
C510        C511   1.405       .  A
C511        C512   1.396       .  A
C511        F514   1.358       .  S
C512        F516   1.358       .  S
C519        C520   1.403       .  A
C519        C524   1.391       .  A
C519        F537   1.359       .  S
C520        C525   1.477       .  S
C520        C521   1.406       .  A
C521        C522   1.403       .  A
C521        F526   1.357       .  S
C522        C523   1.409       .  A
C522        F538   1.358       .  S
C523        C524   1.408       .  A
C524        F527   1.359       .  S
C525        C528   1.407       .  A
C525        C532   1.404       .  A
C528        C529   1.396       .  A
C528        F533   1.358       .  S
C529        C530   1.404       .  A
C529        F535   1.358       .  S
C530        C531   1.408       .  A
C531        C532   1.399       .  A
C531        F534   1.358       .  S
C532        F536   1.358       .  S
C539        C540   1.403       .  A
C539        C544   1.395       .  A
C539        F557   1.358       .  S
C540        C545   1.482       .  S
C540        C541   1.406       .  A
C541        C542   1.405       .  A
C541        F546   1.357       .  S
C542        C543   1.410       .  A
C542        F558   1.357       .  S
C543        C544   1.408       .  A
C544        F547   1.356       .  S
C545        C548   1.401       .  A
C545        C552   1.406       .  A
C548        C549   1.396   1_545  A
C548        F553   1.358   1_545  S
C549        C550   1.415   1_565  A
C549        F555   1.358       .  S
C550        C551   1.411       .  A
C551        C552   1.405       .  A
C551        F554   1.357       .  S
C552        F556   1.358       .  S
C559        C560   1.403       .  A
C559        C564   1.398       .  A
C559        F577   1.358       .  S
C560        C565   1.481       .  S
C560        C561   1.406       .  A
C561        C562   1.403       .  A
C561        F566   1.358       .  S
C562        C563   1.408       .  A
C562        F578   1.358       .  S
C563        C564   1.409       .  A
C564        F567   1.358       .  S
C565        C568   1.406       .  A
C565        C572   1.401       .  A
C568        C569   1.406       .  A
C568        F573   1.357       .  S
C569        C570   1.409       .  A
C569        F575   1.357       .  S
C570        C571   1.412       .  A
C571        C572   1.396       .  A
C571        F574   1.358       .  S
C572        F576   1.358       .  S
C579        C580   1.405       .  A
C579        C584   1.397       .  A
C579        F597   1.358       .  S
C580        C585   1.484       .  S
C580        C581   1.406       .  A
C581        C582   1.399       .  A
C581        F586   1.358       .  S
C582        C583   1.410       .  A
C582        F598   1.358       .  S
C583        C584   1.411       .  A
C584        F587   1.358       .  S
C585        C588   1.405       .  A
C585        C592   1.406       .  A
C588        C589   1.395       .  A
C588        F593   1.358       .  S
C589        C590   1.411       .  A
C589        F595   1.358       .  S
C590        C591   1.412       .  A
C591        C592   1.400       .  A
C591        F594   1.358       .  S
C592        F596   1.358       .  S
C599        C600   1.407       .  A
C599        C604   1.395       .  A
C599        F617   1.358       .  S
C600        C605   1.480       .  S
C600        C601   1.407       .  A
C601        C602   1.400       .  A
C601        F606   1.358       .  S
C602        C603   1.403       .  A
C602        F618   1.358       .  S
C603        C604   1.402       .  A
C604        F607   1.358       .  S
C605        C608   1.406       .  A
C605        C612   1.403       .  A
C608        C609   1.398       .  A
C608        F613   1.358       .  S
C609        C610   1.409       .  A
C609        F615   1.358       .  S
C610        C611   1.414       .  A
C611        C612   1.398       .  A
C611        F614   1.358       .  S
C612        F616   1.358       .  S
C619        C620   1.406       .  A
C619        C624   1.392       .  A
C619        F637   1.358       .  S
C620        C625   1.489       .  S
C620        C621   1.409       .  A
C621        C622   1.407       .  A
C621        F626   1.358       .  S
C622        C623   1.410       .  A
C622        F638   1.358       .  S
C623        C624   1.406       .  A
C624        F627   1.358       .  S
C625        C628   1.408       .  A
C625        C632   1.406       .  A
C628        C629   1.403       .  A
C628        F633   1.357       .  S
C629        C630   1.409       .  A
C629        F635   1.357       .  S
C630        C631   1.408       .  A
C631        C632   1.397       .  A
C631        F634   1.358       .  S
C632        F636   1.358       .  S
C639        C640   1.402       .  A
C639        C644   1.396       .  A
C639        F657   1.358       .  S
C640        C645   1.473       .  S
C640        C641   1.401       .  A
C641        C642   1.400       .  A
C641        F646   1.357       .  S
C642        C643   1.411       .  A
C642        F658   1.358       .  S
C643        C644   1.410       .  A
C644        F647   1.358       .  S
C645        C648   1.400       .  A
C645        C652   1.401       .  A
C648        C649   1.398       .  A
C648        F653   1.358       .  S
C649        C650   1.414       .  A
C649        F655   1.358       .  S
C650        C651   1.412       .  A
C651        C652   1.398       .  A
C651        F654   1.358       .  S
C652        F656   1.358       .  S
C659        C660   1.401       .  A
C659        C664   1.396       .  A
C659        F677   1.358       .  S
C660        C665   1.476       .  S
C660        C661   1.404       .  A
C661        C662   1.398       .  A
C661        F666   1.358       .  S
C662        C663   1.412       .  A
C662        F678   1.358       .  S
C663        C664   1.413       .  A
C664        F667   1.358       .  S
C665        C668   1.404       .  A
C665        C672   1.401       .  A
C668        C669   1.401       .  A
C668        F673   1.358       .  S
C669        C670   1.412       .  A
C669        F675   1.358       .  S
C670        C671   1.412       .  A
C671        C672   1.393       .  A
C671        F674   1.358       .  S
C672        F676   1.358       .  S
C679        C680   1.402       .  A
C679        C684   1.395       .  A
C679        F697   1.359       .  S
C680        C685   1.474       .  S
C680        C681   1.403       .  A
C681        C682   1.396       .  A
C681        F686   1.358       .  S
C682        C683   1.409       .  A
C682        F698   1.358       .  S
C683        C684   1.414       .  A
C684        F687   1.358       .  S
C685        C688   1.402       .  A
C685        C692   1.404       .  A
C688        C689   1.390       .  A
C688        F693   1.359       .  S
C689        C690   1.410       .  A
C689        F695   1.358       .  S
C690        C691   1.410       .  A
C691        C692   1.401       .  A
C691        F694   1.358       .  S
C692        F696   1.358       .  S
C699        C700   1.400       .  A
C699        C704   1.396       .  A
C699        F717   1.358       .  S
C700        C705   1.470       .  S
C700        C701   1.402       .  A
C701        C702   1.397       .  A
C701        F706   1.358       .  S
C702        C703   1.409       .  A
C702        F718   1.358       .  S
C703        C704   1.412       .  A
C704        F707   1.358       .  S
C705        C708   1.403       .  A
C705        C712   1.402       .  A
C708        C709   1.400       .  A
C708        F713   1.357       .  S
C709        C710   1.408       .  A
C709        F715   1.358       .  S
C710        C711   1.408       .  A
C711        C712   1.392       .  A
C711        F714   1.359       .  S
C712        F716   1.359       .  S
C719        C720   1.399       .  A
C719        C724   1.396       .  A
C719        F737   1.358       .  S
C720        C725   1.470       .  S
C720        C721   1.402       .  A
C721        C722   1.399       .  A
C721        F726   1.358       .  S
C722        C723   1.412       .  A
C722        F738   1.358       .  S
C723        C724   1.413       .  A
C724        F727   1.358       .  S
C725        C728   1.403       .  A
C725        C732   1.402       .  A
C728        C729   1.401       .  A
C728        F733   1.357       .  S
C729        C730   1.408       .  A
C729        F735   1.358       .  S
C730        C731   1.405       .  A
C731        C732   1.392       .  A
C731        F734   1.359       .  S
C732        F736   1.358       .  S
