geometry optimzed in LAMMPS
_audit_creation_date              2020-11-30 
_audit_creation_method            'lammps2cif' 
_symmetry_space_group_name_H-M    'P1' 
_symmetry_Int_Tables_number       1 
_symmetry_cell_setting            triclinic 
loop_ 
_symmetry_equiv_pos_as_xyz 
  x,y,z 
_cell_length_a                    61.0499252 
_cell_length_b                    61.71688938332913 
_cell_length_c                    44.006301242672905 
_cell_angle_alpha                 89.94809109786435 
_cell_angle_beta                  90.17319286880058 
_cell_angle_gamma                 119.39013322293367 
loop_ 
_atom_site_label 
_atom_site_type_symbol 
_atom_site_fract_x 
_atom_site_fract_y 
_atom_site_fract_z 
_atom_site_charge 
Fe1        Fe  0.20972368  0.28104330  0.18827410     1.65800
Fe2        Fe  0.24770352  0.25646383  0.18232703     1.73200
Fe3        Fe  0.22325718  0.26841540  0.11828306     1.54400
O4          O  0.18428194  0.24989140  0.11950179    -0.82500
O5          O  0.27509939  0.27056000  0.14832035    -0.80800
O6          O  0.17845366  0.26706464  0.16081187    -0.85000
O7          O  0.22630751  0.31410301  0.16589268    -0.79900
O8          O  0.22145509  0.23411048  0.11405162    -0.81600
O9          O  0.26853677  0.29023121  0.20528001    -0.84400
C10         C  0.22646454  0.31837492  0.13775616     0.96400
C11         C  0.17028517  0.25412943  0.13686303     1.03800
O12         O  0.22677644  0.26835419  0.16271828    -1.13400
O13         O  0.22257444  0.23991951  0.21930990    -0.75800
O14         O  0.19186415  0.24892234  0.21179417    -0.79300
O15         O  0.22407697  0.30276944  0.11729581    -0.80000
C16         C  0.20091256  0.23719013  0.22560247     0.95300
O17         O  0.23799399  0.29673081  0.22074265    -0.77900
O18         O  0.22918498  0.22268905  0.15944860    -0.83100
C19         C  0.27845673  0.28244035  0.12350838     0.97900
C20         C  0.22257536  0.21829152  0.13162407     1.03800
O21         O  0.26177024  0.28662460  0.11201317    -0.78800
C22         C  0.26093593  0.30242860  0.22116859     1.02100
Fe23       Fe  0.21469555  0.43440998  0.19712211     1.65800
Fe24       Fe  0.24704003  0.99668849  0.18552828     1.73200
Fe25       Fe  0.22626151  0.45725477  0.12519106     1.54400
O26         O  0.22860618  0.42489014  0.12598473    -0.82500
O27         O  0.22395009  0.00571002  0.16121300    -0.80800
O28         O  0.22970274  0.41560240  0.17460231    -0.85000
O29         O  0.18193793  0.41673884  0.17184957    -0.79900
O30         O  0.26488606  0.47743817  0.12041770    -0.81600
O31         O  0.22280505  0.48985427  0.22192798    -0.84400
C32         C  0.17373046  0.41930384  0.14623731     0.96400
C33         C  0.23012678  0.41132683  0.14655091     1.03800
O34         O  0.22932318  0.46263164  0.16941055    -1.13400
O35         O  0.27073771  0.98933742  0.21172796    -0.75800
O36         O  0.24612923  0.44948459  0.22494867    -0.79300
O37         O  0.18740519  0.43593742  0.12713413    -0.80000
C38         C  0.26664749  0.46998267  0.22642640     0.95300
O39         O  0.19737528  0.44897461  0.22285514    -0.77900
O40         O  0.27417500  0.00920757  0.15106743    -0.83100
C41         C  0.21834867  0.00281153  0.13327297     0.97900
C42         C  0.28030528  0.99906363  0.12998245     1.03800
O43         O  0.22242721  0.48835164  0.11663203    -0.78800
C44         C  0.20358059  0.47064695  0.23183500     1.02100
Fe45       Fe  0.07150978  0.28540236  0.19341392     1.65800
Fe46       Fe  0.50777944  0.25769181  0.18951366     1.73200
Fe47       Fe  0.04318940  0.27494193  0.12389083     1.54400
O48         O  0.07050101  0.31243811  0.12437292    -0.82500
O49         O  0.49180536  0.22803210  0.15913996    -0.80800
O50         O  0.09058499  0.31732600  0.16822585    -0.85000
O51         O  0.08529960  0.26691819  0.16840474    -0.79900
O52         O  0.01662787  0.28651375  0.12020267    -0.81600
O53         O  0.01520421  0.23508623  0.21755604    -0.84400
C54         C  0.08365863  0.25999148  0.14100748     0.96400
C55         C  0.08754591  0.32579439  0.14332897     1.03800
O56         O  0.04074170  0.27248814  0.16885639    -1.13400
O57         O  0.01954023  0.28532214  0.22280111    -0.75800
O58         O  0.06101751  0.30552962  0.22007092    -0.79300
O59         O  0.06983181  0.26297696  0.12165534    -0.80000
C60         C  0.04081695  0.30323651  0.23062341     0.95300
O61         O  0.05679103  0.25559831  0.22307829    -0.77900
O62         O  0.49636751  0.27863868  0.16412019    -0.83100
C63         C  0.49693160  0.22284684  0.13303816     0.97900
C64         C  0.50051793  0.28756758  0.13745579     1.03800
O65         O  0.01588207  0.23824406  0.11786807    -0.78800
C66         C  0.03527398  0.23752077  0.22932179     1.02100
Fe67       Fe  0.23536060  0.10987663  0.02934460     1.65800
Fe68       Fe  0.17402805  0.08883872  0.01877772     1.73200
Fe69       Fe  0.21261729  0.10233743  0.45798267     1.54400
O70         O  0.24679631  0.13495963  0.45844183    -0.82500
O71         O  0.16064545  0.05655235  0.49688764    -0.80800
O72         O  0.25452441  0.14400664  0.00958644    -0.85000
O73         O  0.25261984  0.09597299  0.00170923    -0.79900
O74         O  0.19501324  0.12349963  0.45357523    -0.81600
O75         O  0.17941938  0.07056590  0.05579935    -0.84400
C76         C  0.24834264  0.08374938  0.47610983     0.96400
C77         C  0.26062322  0.14924039  0.47939809     1.03800
O78         O  0.20737659  0.10029945  0.00182659    -1.13400
O79         O  0.18674404  0.12172613  0.04348350    -0.75800
O80         O  0.22202676  0.12494441  0.06167665    -0.79300
O81         O  0.23104571  0.08170671  0.45829828    -0.80000
C82         C  0.20565166  0.13191677  0.06124337     0.95300
O83         O  0.21815950  0.07639690  0.05010933    -0.77900
O84         O  0.16383290  0.10483255  0.48616385    -0.83100
C85         C  0.16272221  0.05314434  0.46879438     0.97900
C86         C  0.17389428  0.11928882  0.46375710     1.03800
O87         O  0.17927001  0.06959288  0.45167953    -0.78800
C88         C  0.19674879  0.06554392  0.06231187     1.02100
Fe89       Fe  0.38012758  0.11621369  0.02932876     1.65800
Fe90       Fe  0.41608408  0.08826204  0.02357116     1.73200
Fe91       Fe  0.39526537  0.10417773  0.45810182     1.54400
O92         O  0.35709293  0.09348758  0.45712244    -0.82500
O93         O  0.44693417  0.10871755  0.49714457    -0.80800
O94         O  0.34713075  0.09768742  0.00570887    -0.85000
O95         O  0.39236886  0.14796836  0.00345300    -0.79900
O96         O  0.38467064  0.06702131  0.45210527    -0.81600
O97         O  0.43222207  0.11581916  0.05748798    -0.84400
C98         C  0.40338306  0.15590168  0.47790072     0.96400
C99         C  0.34084705  0.09053763  0.47707485     1.03800
O100        O  0.39713773  0.10280206  0.00391751    -1.13400
O101        O  0.38615398  0.06515015  0.05126551    -0.75800
O102        O  0.36574194  0.08628190  0.05901916    -0.79300
O103        O  0.40649812  0.14215844  0.45882944    -0.80000
C104        C  0.36866240  0.06753075  0.06358594     0.95300
O105        O  0.41121477  0.13653912  0.05539620    -0.77900
O106        O  0.40211314  0.05811668  0.49126452    -0.83100
C107        C  0.45047723  0.11566709  0.46963040     0.97900
C108        C  0.39034150  0.05238980  0.46599687     1.03800
O109        O  0.43271793  0.11390240  0.45279423    -0.78800
C110        C  0.42905580  0.13387653  0.06572324     1.02100
Fe111      Fe  0.38763722  0.26749476  0.03061453     1.65800
Fe112      Fe  0.41466201  0.32900251  0.01736627     1.73200
Fe113      Fe  0.39785178  0.28883703  0.45690063     1.54400
O114        O  0.41643385  0.26813431  0.45911243    -0.82500
O115        O  0.40027554  0.34047369  0.48168002    -0.80800
O116        O  0.40235445  0.24948114  0.00521160    -0.85000
O117        O  0.35374626  0.24832169  0.00950999    -0.79900
O118        O  0.43192583  0.32084502  0.44819451    -0.81600
O119        O  0.38249312  0.32069768  0.04220342    -0.84400
C120        C  0.34952517  0.24231667  0.47962630     0.96400
C121        C  0.41330166  0.25138160  0.47831924     1.03800
O122        O  0.39963808  0.29489125  0.00201385    -1.13400
O123        O  0.43221204  0.32331830  0.05518496    -0.75800
O124        O  0.42026639  0.28308704  0.05463158    -0.79300
O125        O  0.36402603  0.25552397  0.45849095    -0.80000
C126        C  0.43401989  0.30478918  0.06462122     0.95300
O127        O  0.37095200  0.28232407  0.05881916    -0.77900
O128        O  0.44773829  0.33916218  0.49251889    -0.83100
C129        C  0.38437513  0.33013990  0.46027187     0.97900
C130        C  0.45007631  0.33672324  0.46427881     1.03800
O131        O  0.37832196  0.30830107  0.45141309    -0.78800
C132        C  0.36833616  0.30155830  0.05796028     1.02100
Fe133      Fe  0.40422047  0.44821981  0.35863295     1.65800
Fe134      Fe  0.34048857  0.42179975  0.35011408     1.73200
Fe135      Fe  0.37957332  0.44113323  0.28748187     1.54400
O136        O  0.40906828  0.47773765  0.29043082    -0.82500
O137        O  0.32608898  0.39201872  0.31990311    -0.80800
O138        O  0.42330075  0.48231936  0.33779927    -0.85000
O139        O  0.42103596  0.43359552  0.33149364    -0.79900
O140        O  0.35611149  0.45569262  0.28327826    -0.81600
O141        O  0.34728607  0.39965754  0.38074447    -0.84400
C142        C  0.41909306  0.42607639  0.30432244     0.96400
C143        C  0.42357546  0.49107680  0.31165899     1.03800
O144        O  0.37464129  0.43691225  0.33200552    -1.13400
O145        O  0.35083348  0.45032170  0.38249565    -0.75800
O146        O  0.39148511  0.46461330  0.38899687    -0.79300
O147        O  0.40380155  0.42684088  0.28547671    -0.80000
C148        C  0.37146913  0.46472702  0.39594649     0.95300
O149        O  0.38885800  0.41560592  0.38294501    -0.77900
O150        O  0.32828613  0.44056946  0.32096480    -0.83100
C151        C  0.33120269  0.38907296  0.29269751     0.97900
C152        C  0.33595820  0.45199739  0.29576301     1.03800
O153        O  0.35026384  0.40549121  0.27845931    -0.78800
C154        C  0.36680259  0.39919522  0.39015555     1.02100
Fe155      Fe  0.04659167  0.45410612  0.35619395     1.65800
Fe156      Fe  0.08203205  0.42582536  0.35353380     1.73200
Fe157      Fe  0.06447531  0.44300945  0.28748224     1.54400
O158        O  0.02675856  0.43334522  0.28435251    -0.82500
O159        O  0.11493160  0.44814153  0.32997656    -0.80800
O160        O  0.01450155  0.43508191  0.33137844    -0.85000
O161        O  0.05925689  0.48559698  0.32998111    -0.79900
O162        O  0.05330311  0.40607333  0.28216557    -0.81600
O163        O  0.09572240  0.45188912  0.38855676    -0.84400
C164        C  0.07212261  0.49411700  0.30599206     0.96400
C165        C  0.00976194  0.42945148  0.30359840     1.03800
O166        O  0.06425770  0.44080776  0.33234754    -1.13400
O167        O  0.05104894  0.40229453  0.37937335    -0.75800
O168        O  0.03178557  0.42455605  0.38607423    -0.79300
O169        O  0.07658947  0.48079539  0.28791250    -0.80000
C170        C  0.03413149  0.40561605  0.39165249     0.95300
O171        O  0.07705760  0.47458289  0.38309516    -0.77900
O172        O  0.07057393  0.39745465  0.32176014    -0.83100
C173        C  0.11912606  0.45472763  0.30230411     0.97900
C174        C  0.05901524  0.39169786  0.29639989     1.03800
O175        O  0.10165473  0.45193931  0.28430909    -0.78800
C176        C  0.09335556  0.47057708  0.39557798     1.02100
Fe177      Fe  0.05480397  0.10128153  0.36428691     1.65800
Fe178      Fe  0.08273555  0.16431824  0.35647921     1.73200
Fe179      Fe  0.06469452  0.12681257  0.29311270     1.54400
O180        O  0.07611382  0.10016474  0.29254582    -0.82500
O181        O  0.06245878  0.17560355  0.32897852    -0.80800
O182        O  0.07221226  0.08594057  0.33972694    -0.85000
O183        O  0.02220261  0.08180787  0.33977163    -0.79900
O184        O  0.10181675  0.15354094  0.28637232    -0.81600
O185        O  0.05432921  0.15407331  0.38866100    -0.84400
C186        C  0.01358234  0.08320847  0.31405944     0.96400
C187        C  0.07832973  0.08628729  0.31218097     1.03800
O188        O  0.06742787  0.13082994  0.33791794    -1.13400
O189        O  0.10538977  0.15763865  0.38589524    -0.75800
O190        O  0.08594368  0.11659131  0.39231091    -0.79300
O191        O  0.02680685  0.09957855  0.29446164    -0.80000
C192        C  0.10407940  0.13819588  0.39740782     0.95300
O193        O  0.03535394  0.11281057  0.39157562    -0.77900
O194        O  0.11289436  0.17844640  0.32666653    -0.83100
C195        C  0.05324604  0.17040540  0.30237094     0.97900
C196        C  0.11780252  0.17257742  0.30090131     1.03800
O197        O  0.05351486  0.15315289  0.28704064    -0.78800
C198        C  0.03719685  0.13344009  0.39902182     1.02100
C199        C  0.09750103  0.03787485  0.32293627    -0.02700
C200        C  0.08250574  0.02091863  0.30032658     0.07000
C201        C  0.07417840  0.02945276  0.27560632    -0.02800
C202        C  0.07654641  0.05335630  0.27668627    -0.02800
C203        C  0.08647975  0.06814574  0.30309282     0.07100
C204        C  0.09945580  0.06146242  0.32442721    -0.03000
Br205      Br  0.11919964  0.08416300  0.35635138    -0.01500
Br206      Br  0.11474458  0.02838719  0.35232033    -0.01600
Br207      Br  0.06492892  0.06473048  0.24271272    -0.01600
Br208      Br  0.05796325  0.50791078  0.24146021    -0.01600
C209        C  0.45788606  0.02599944  0.28076523    -0.02700
C210        C  0.44214277  0.01788508  0.30662221     0.07000
C211        C  0.44659920  0.03517698  0.33012478    -0.02800
C212        C  0.46888481  0.05825231  0.33050065    -0.02800
C213        C  0.48705750  0.06419163  0.30757811     0.07100
C214        C  0.48053850  0.04899129  0.28143966    -0.03000
Br215      Br  0.00319435  0.05854820  0.24740325    -0.01500
Br216      Br  0.44930702  0.50570603  0.24476084    -0.01600
Br217      Br  0.47469943  0.08178458  0.36267536    -0.01600
Br218      Br  0.42202756  0.02747251  0.36179095    -0.01600
C219        C  0.45341777  0.42930925  0.27042275    -0.02700
C220        C  0.43664557  0.41743921  0.29466303     0.07000
C221        C  0.44086929  0.40183232  0.31425287    -0.02800
C222        C  0.46422759  0.40264934  0.31404123    -0.02800
C223        C  0.48325507  0.41910978  0.29416907     0.07100
C224        C  0.47682559  0.43002422  0.27006307    -0.03000
Br225      Br  0.00058441  0.44800087  0.23830151    -0.01500
Br226      Br  0.44584685  0.44687024  0.23966402    -0.01600
Br227      Br  0.47081883  0.38263198  0.34242367    -0.01600
Br228      Br  0.41517904  0.38068649  0.34261601    -0.01600
C229        C  0.35835038  0.35549241  0.39800278    -0.02700
C230        C  0.36447897  0.37880848  0.41026206     0.07000
C231        C  0.37197659  0.38381241  0.44082135    -0.02800
C232        C  0.37590644  0.36673119  0.45815842    -0.02800
C233        C  0.37381151  0.34486089  0.44443334     0.07100
C234        C  0.36318030  0.33861914  0.41463010    -0.03000
Br235      Br  0.35540297  0.30761010  0.39505411    -0.01500
Br236      Br  0.34398178  0.34721798  0.35776473    -0.01600
Br237      Br  0.38282166  0.37342813  0.50108884    -0.01600
Br238      Br  0.37667718  0.41435887  0.45876613    -0.01600
C239        C  0.98833840  0.37899791  0.45700592    -0.02700
C240        C  0.47441335  0.35350645  0.44902363     0.07000
C241        C  0.48312915  0.34456498  0.42488002    -0.02800
C242        C  0.50329330  0.36129650  0.40649678    -0.02800
C243        C  0.01598944  0.38697609  0.41330204     0.07100
C244        C  0.00957543  0.39528719  0.43995724    -0.03000
Br245      Br  0.03052590  0.42902599  0.45392810    -0.01500
Br246      Br  0.97776433  0.39275461  0.48963297    -0.01600
Br247      Br  0.51215958  0.34892529  0.37095831    -0.01600
Br248      Br  0.46820348  0.30926227  0.41741722    -0.01600
C249        C  0.48351771  0.14123661  0.43070695    -0.02700
C250        C  0.47585565  0.12471957  0.45580107     0.07000
C251        C  0.49127040  0.11455774  0.46491427    -0.02800
C252        C  0.01175372  0.11812831  0.44676957    -0.02800
C253        C  0.01798517  0.13282332  0.42021411     0.07100
C254        C  0.00413048  0.14486686  0.41270012    -0.03000
Br255      Br  0.01113878  0.16387602  0.37561121    -0.01500
Br256      Br  0.46662465  0.16000392  0.42134700    -0.01600
Br257      Br  0.03047928  0.10159455  0.45795684    -0.01600
Br258      Br  0.48483281  0.09505917  0.50168397    -0.01600
C259        C  0.35441561  0.49013278  0.42377561    -0.02700
C260        C  0.37361961  0.48375505  0.41928883     0.07000
C261        C  0.39664852  0.99789941  0.43538942    -0.02800
C262        C  0.40219144  0.02048701  0.44953804    -0.02800
C263        C  0.38385720  0.02801113  0.45156014     0.07100
C264        C  0.35961589  0.01220051  0.43957094    -0.03000
Br265      Br  0.33329539  0.02065092  0.44504354    -0.01500
Br266      Br  0.32026049  0.46808672  0.41110469    -0.01600
Br267      Br  0.43623166  0.04233132  0.46297192    -0.01600
Br268      Br  0.42058406  0.98611444  0.44104122    -0.01600
C269        C  0.40716289  0.21505688  0.44644254    -0.02700
C270        C  0.41971488  0.23165497  0.47069622     0.07000
C271        C  0.43228236  0.22502677  0.49256832    -0.02800
C272        C  0.42890074  0.20073326  0.49311567    -0.02800
C273        C  0.41305181  0.18285349  0.47160526     0.07100
C274        C  0.40385008  0.19068891  0.44692110    -0.03000
Br275      Br  0.38464796  0.16744935  0.41534454    -0.01500
Br276      Br  0.39182271  0.22447680  0.41446461    -0.01600
Br277      Br  0.44558269  0.19181369  0.52390148     0.01100
Br278      Br  0.45322452  0.24915333  0.52264798    -0.01600
C279        C  0.13935246  0.13087537  0.46370474    -0.02700
C280        C  0.15958574  0.13029896  0.44838642     0.07000
C281        C  0.16423152  0.13833295  0.41751769    -0.02800
C282        C  0.14700041  0.14321472  0.40162908    -0.02800
C283        C  0.12515822  0.14013667  0.41604173     0.07100
C284        C  0.12224278  0.13558463  0.44739594    -0.03000
Br285      Br  0.09501434  0.13655083  0.46805206    -0.01500
Br286      Br  0.13457568  0.12583314  0.50719175    -0.01600
Br287      Br  0.15250518  0.15306239  0.35937907    -0.01600
Br288      Br  0.19317029  0.14197438  0.39538042    -0.01600
C289        C  0.13581327  0.49459686  0.42147395    -0.02700
C290        C  0.11041234  0.48905626  0.41842002     0.07000
C291        C  0.10204184  0.50327583  0.43531912    -0.02800
C292        C  0.11914127  0.02370476  0.45272065    -0.02800
C293        C  0.14441725  0.02962090  0.45455322     0.07100
C294        C  0.15260818  0.01469478  0.43973996    -0.03000
Br295      Br  0.18718744  0.02228321  0.44404484    -0.01500
Br296      Br  0.14900618  0.47656735  0.39916540    -0.01600
Br297      Br  0.10849657  0.04535296  0.47152374    -0.01600
Br298      Br  0.06722764  0.49552806  0.43537710    -0.01600
C299        C  0.30525111  0.17405471  0.98523176    -0.02700
C300        C  0.28382443  0.17184417  0.47171299     0.07000
C301        C  0.28360776  0.19270547  0.45911917    -0.02800
C302        C  0.30586704  0.21590660  0.45912765    -0.02800
C303        C  0.32776289  0.21803575  0.47269265     0.07100
C304        C  0.32697601  0.19712364  0.98630048    -0.03000
Br305      Br  0.35667967  0.19899797  0.00431393    -0.01500
Br306      Br  0.30639610  0.14464704  0.99825634    -0.01600
Br307      Br  0.30593990  0.24487305  0.44277521    -0.01600
Br308      Br  0.25262862  0.18972078  0.44398275    -0.01600
C309        C  0.27143664  0.06160230  0.48985233    -0.02700
C310        C  0.26537721  0.07417269  0.46759442     0.07000
C311        C  0.28137166  0.08451764  0.44238442    -0.02800
C312        C  0.30583498  0.08753720  0.44319651    -0.02800
C313        C  0.31377013  0.07950073  0.46898921     0.07100
C314        C  0.29551688  0.06402331  0.49036496    -0.03000
Br315      Br  0.30368606  0.04702548  0.52129436    -0.01500
Br316      Br  0.24737279  0.04302024  0.52120949    -0.01600
Br317      Br  0.32866901  0.10477690  0.41043467    -0.01600
Br318      Br  0.27078723  0.09694862  0.40844715    -0.01600
C319        C  0.49468947  0.31630207  0.10140979    -0.02700
C320        C  0.48502837  0.29830005  0.12496100     0.07000
C321        C  0.45945752  0.28849670  0.13342856    -0.02800
C322        C  0.44316092  0.29284098  0.11491421    -0.02800
C323        C  0.45222668  0.30749277  0.08853247     0.07100
C324        C  0.47823011  0.32047889  0.08285481    -0.03000
Br325      Br  0.49099629  0.34205189  0.04797101    -0.01500
Br326      Br  0.03049799  0.33595768  0.09495798    -0.01600
Br327      Br  0.40773166  0.27739124  0.12447950    -0.01600
Br328      Br  0.44560023  0.26831543  0.16935931    -0.01600
C329        C  0.48930600  0.18469457  0.10306757    -0.02700
C330        C  0.47969557  0.19805850  0.11922210     0.07000
C331        C  0.45338490  0.18803520  0.12105592    -0.02800
C332        C  0.43705662  0.16534879  0.10667628    -0.02800
C333        C  0.44660615  0.15343213  0.08753856     0.07100
C334        C  0.47295478  0.16289997  0.08665007    -0.03000
Br335      Br  0.48728546  0.14729986  0.06174004    -0.01500
Br336      Br  0.02498237  0.19595252  0.10360710    -0.01600
Br337      Br  0.40131382  0.15058698  0.11413553    -0.01600
Br338      Br  0.43913192  0.20641637  0.14040107    -0.01600
C339        C  0.02433271  0.33050696  0.25305993    -0.02700
C340        C  0.04301991  0.32317036  0.25178524     0.07000
C341        C  0.06599254  0.33758359  0.26776828    -0.02800
C342        C  0.07137989  0.36031018  0.28108559    -0.02800
C343        C  0.05287829  0.36760831  0.28224609     0.07100
C344        C  0.02913357  0.35237110  0.26874458    -0.03000
Br345      Br  0.50313842  0.36160399  0.27124493    -0.01500
Br346      Br  0.49238508  0.31185493  0.23255410    -0.01600
Br347      Br  0.10553283  0.38291016  0.29385919    -0.01600
Br348      Br  0.09069156  0.32668615  0.27251928    -0.01600
C349        C  0.04473761  0.22602326  0.28017806    -0.02700
C350        C  0.03410505  0.21861424  0.25106834     0.07000
C351        C  0.02447426  0.19371672  0.24209187    -0.02800
C352        C  0.02822551  0.17712066  0.26060895    -0.02800
C353        C  0.04305968  0.18573367  0.28758807     0.07100
C354        C  0.04972612  0.21002512  0.29825721    -0.03000
Br355      Br  0.06628570  0.22278180  0.33690118    -0.01500
Br356      Br  0.05151715  0.25808130  0.29550263    -0.01600
Br357      Br  0.01177919  0.14245418  0.24877921    -0.01600
Br358      Br  0.50726182  0.18266222  0.20353791    -0.01600
C359        C  0.20710930  0.05641718  0.11273244    -0.02700
C360        C  0.19329214  0.04733566  0.08573914     0.07000
C361        C  0.18364423  0.02232610  0.07757046    -0.02800
C362        C  0.18980393  0.00695352  0.09501888    -0.02800
C363        C  0.20736716  0.01725540  0.11925012     0.07100
C364        C  0.21524669  0.04197379  0.12875263    -0.03000
Br365      Br  0.23983414  0.05796455  0.16070525    -0.01500
Br366      Br  0.21660495  0.08974270  0.12592612    -0.01600
Br367      Br  0.17399531  0.47198316  0.08515218    -0.01600
Br368      Br  0.16397649  0.00998388  0.04084305    -0.01600
C369        C  0.31094376  0.00736658  0.08589534    -0.02700
C370        C  0.30585633  0.01359021  0.11530965     0.07000
C371        C  0.32536147  0.03496862  0.12992918    -0.02800
C372        C  0.34679654  0.05199368  0.11350750    -0.02800
C373        C  0.34987196  0.04729446  0.08303372     0.07100
C374        C  0.33304473  0.02408908  0.07019485    -0.03000
Br375      Br  0.33969858  0.01586900  0.03010522    -0.01500
Br376      Br  0.28822428  0.47655489  0.06557657    -0.01600
Br377      Br  0.37270870  0.08158390  0.13289249    -0.01600
Br378      Br  0.32427301  0.04067382  0.17298203    -0.01600
C379        C  0.16129033  0.45609770  0.29973593    -0.02700
C380        C  0.14493504  0.46482102  0.28944177     0.07000
C381        C  0.15206137  0.48068703  0.26364457    -0.02800
C382        C  0.17266676  0.48427424  0.24579326    -0.02800
C383        C  0.18692866  0.47297285  0.25419792     0.07100
C384        C  0.18210512  0.46013104  0.28197729    -0.03000
Br385      Br  0.20355669  0.44697758  0.29486476    -0.01500
Br386      Br  0.15511332  0.43716224  0.33681591    -0.01600
Br387      Br  0.17955979  0.00237258  0.20802884    -0.01600
Br388      Br  0.13385393  0.99774433  0.25220233    -0.01600
C389        C  0.30787832  0.47146172  0.29180986    -0.02700
C390        C  0.31998264  0.45947412  0.27810172     0.07000
C391        C  0.31632687  0.45381998  0.24659083    -0.02800
C392        C  0.30098927  0.46018718  0.22937419    -0.02800
C393        C  0.28725245  0.46995553  0.24366537     0.07100
C394        C  0.29102071  0.47613029  0.27471853    -0.03000
Br395      Br  0.27301301  0.49086093  0.29355656    -0.01500
Br396      Br  0.31480856  0.48217863  0.33344644    -0.01600
Br397      Br  0.29835093  0.45528502  0.18585864    -0.01600
Br398      Br  0.32961249  0.43471173  0.22680394    -0.01600
C399        C  0.12831877  0.39408703  0.15933502    -0.02700
C400        C  0.14772480  0.40026209  0.13810265     0.07000
C401        C  0.14377149  0.38391502  0.11360189    -0.02800
C402        C  0.12254438  0.35987998  0.11345959    -0.02800
C403        C  0.10490720  0.35250709  0.13721061     0.07100
C404        C  0.10684396  0.37035218  0.15868813    -0.03000
Br405      Br  0.08049221  0.36188526  0.18805846    -0.01500
Br406      Br  0.13198416  0.41774755  0.19039427    -0.01600
Br407      Br  0.11941109  0.33615041  0.08300068    -0.01600
Br408      Br  0.16910784  0.39283573  0.08265416    -0.01600
C409        C  0.32597039  0.30460613  0.11954073    -0.02700
C410        C  0.30202464  0.29010008  0.10608286     0.07000
C411        C  0.30046625  0.28149786  0.07596718    -0.02800
C412        C  0.32246558  0.28692444  0.05987947    -0.02800
C413        C  0.34623459  0.30010711  0.07387475     0.07100
C414        C  0.34800589  0.30937001  0.10357058    -0.03000
Br415      Br  0.38056833  0.32815215  0.12234738    -0.01500
Br416      Br  0.32858112  0.31845789  0.15947996    -0.01600
Br417      Br  0.32007502  0.27609097  0.01835852    -0.01600
Br418      Br  0.26815093  0.26032944  0.05723476    -0.01600
C419        C  0.23819977  0.19203586  0.10801703    -0.02700
C420        C  0.21769553  0.19449140  0.11788993     0.07000
C421        C  0.19306524  0.17579747  0.11102332    -0.02800
C422        C  0.18889579  0.15474152  0.09384164    -0.02800
C423        C  0.20953140  0.15294179  0.08183566     0.07100
C424        C  0.23436523  0.17189074  0.08946729    -0.03000
Br425      Br  0.26405673  0.17241139  0.07319675    -0.01500
Br426      Br  0.27193306  0.21726136  0.11897859    -0.01600
Br427      Br  0.15479623  0.12817976  0.08844183    -0.01600
Br428      Br  0.16511769  0.17933519  0.12532137    -0.01600
C429        C  0.28948149  0.36311064  0.26778399    -0.02700
C430        C  0.31315301  0.36623352  0.27598004     0.07000
C431        C  0.31978064  0.34840410  0.26665156    -0.02800
C432        C  0.30240033  0.32690568  0.25048836    -0.02800
C433        C  0.27895423  0.32420368  0.24058154     0.07100
C434        C  0.27302947  0.34309018  0.24905680    -0.03000
Br435      Br  0.24356910  0.34380177  0.23372377    -0.01500
Br436      Br  0.27997953  0.38721156  0.28126989    -0.01600
Br437      Br  0.31087910  0.30094704  0.24403391    -0.01600
Br438      Br  0.35289094  0.35357070  0.27613461    -0.01600
C439        C  0.15450778  0.21529964  0.28975376    -0.02700
C440        C  0.14275978  0.18908319  0.28645526     0.07000
C441        C  0.15411075  0.17898329  0.26713657    -0.02800
C442        C  0.17464100  0.19472992  0.24847646    -0.02800
C443        C  0.18503964  0.22068829  0.25035159     0.07100
C444        C  0.17586753  0.23083629  0.27236137    -0.03000
Br445      Br  0.19203021  0.26656891  0.27744826    -0.01500
Br446      Br  0.14048830  0.23088937  0.31542665    -0.01600
Br447      Br  0.18689520  0.18071219  0.21826274    -0.01600
Br448      Br  0.14199935  0.14359227  0.26615923    -0.01600
C449        C  0.24968343  0.38662356  0.12582255    -0.02700
C450        C  0.22889117  0.38772555  0.13795554     0.07000
C451        C  0.20625551  0.36556999  0.14340173    -0.02800
C452        C  0.20470619  0.34260208  0.13807052    -0.02800
C453        C  0.22631840  0.34139693  0.12995523     0.07100
C454        C  0.24862801  0.36333537  0.12268942    -0.03000
Br455      Br  0.27783018  0.36132692  0.11048025    -0.01500
Br456      Br  0.27981962  0.41680335  0.11552847    -0.01600
Br457      Br  0.17305819  0.31261736  0.14420828    -0.01600
Br458      Br  0.17751568  0.36599127  0.16068592    -0.01600
C459        C  0.12568391  0.23239594  0.15247553    -0.02700
C460        C  0.14351425  0.24495669  0.12958139     0.07000
C461        C  0.13688635  0.25495108  0.10466173    -0.02800
C462        C  0.11470562  0.25676061  0.10580701    -0.02800
C463        C  0.09958620  0.24890870  0.13220300     0.07100
C464        C  0.10369508  0.23426168  0.15377706    -0.03000
Br465      Br  0.07997166  0.21786314  0.18624089    -0.01500
Br466      Br  0.13272060  0.21459120  0.18362295    -0.01600
Br467      Br  0.10660187  0.27177561  0.07237463    -0.01600
Br468      Br  0.15973902  0.26907324  0.07099289    -0.01600
Fe469      Fe  0.21050940  0.28186113  0.68672525     1.65800
Fe470      Fe  0.24835614  0.25710912  0.68276774     1.73200
Fe471      Fe  0.22487594  0.26871743  0.61784425     1.54400
O472        O  0.18591400  0.24944273  0.61851441    -0.82500
O473        O  0.27607576  0.27085175  0.64880699    -0.80800
O474        O  0.17977324  0.26793622  0.65830401    -0.85000
O475        O  0.22784656  0.31494300  0.66421872    -0.79900
O476        O  0.22413420  0.23486468  0.61429172    -0.81600
O477        O  0.26895928  0.29089457  0.70543587    -0.84400
C478        C  0.22764566  0.31869005  0.63596510     0.96400
C479        C  0.17178861  0.25422752  0.63492220     1.03800
O480        O  0.22781015  0.26894493  0.66224041    -1.13400
O481        O  0.22274559  0.24112507  0.71960208    -0.75800
O482        O  0.19201902  0.24968163  0.70997618    -0.79300
O483        O  0.22485585  0.30262095  0.61598101    -0.80000
C484        C  0.20088091  0.23831229  0.72494301     0.95300
O485        O  0.23815909  0.29727551  0.72001382    -0.77900
O486        O  0.22992240  0.22314652  0.66047101    -0.83100
C487        C  0.27977811  0.28305281  0.62412307     0.97900
C488        C  0.22453666  0.21894599  0.63234514     1.03800
O489        O  0.26340106  0.28772305  0.61275182    -0.78800
C490        C  0.26103013  0.30277515  0.72134918     1.02100
Fe491      Fe  0.21513873  0.43262754  0.69491767     1.65800
Fe492      Fe  0.24666519  0.99503155  0.68536745     1.73200
Fe493      Fe  0.22549615  0.45686521  0.62405259     1.54400
O494        O  0.22724711  0.42416931  0.62300487    -0.82500
O495        O  0.22313430  0.00432126  0.66248093    -0.80800
O496        O  0.23082956  0.41513343  0.67098899    -0.85000
O497        O  0.18233159  0.41526570  0.66990906    -0.79900
O498        O  0.26407954  0.47672719  0.61924368    -0.81600
O499        O  0.22276836  0.48708175  0.72254594    -0.84400
C500        C  0.17339902  0.41873201  0.64537530     0.96400
C501        C  0.23012441  0.41087846  0.64279747     1.03800
O502        O  0.22907500  0.46139240  0.66828431    -1.13400
O503        O  0.27083858  0.98747476  0.71012379    -0.75800
O504        O  0.24652526  0.44741106  0.72250851    -0.79300
O505        O  0.18658943  0.43600599  0.62669426    -0.80000
C506        C  0.26691991  0.46795060  0.72423079     0.95300
O507        O  0.19753635  0.44617157  0.72175550    -0.77900
O508        O  0.27335947  0.00826050  0.65029610    -0.83100
C509        C  0.21809079  0.00241345  0.63440462     0.97900
C510        C  0.27948525  0.99826715  0.62898597     1.03800
O511        O  0.22240135  0.48850558  0.61711032    -0.78800
C512        C  0.20363738  0.46750047  0.73196809     1.02100
Fe513      Fe  0.07191219  0.28383473  0.69284698     1.65800
Fe514      Fe  0.50808731  0.25555016  0.68774446     1.73200
Fe515      Fe  0.04413156  0.27386226  0.62273495     1.54400
O516        O  0.07128196  0.31148963  0.62414401    -0.82500
O517        O  0.49315491  0.22600650  0.65759587    -0.80800
O518        O  0.09045527  0.31644397  0.66871318    -0.85000
O519        O  0.08677640  0.26660330  0.66695486    -0.79900
O520        O  0.01751990  0.28518737  0.61876568    -0.81600
O521        O  0.01572925  0.23333555  0.71625666    -0.84400
C522        C  0.08518891  0.25979527  0.63947880     0.96400
C523        C  0.08769050  0.32500549  0.64370590     1.03800
O524        O  0.04132993  0.27093441  0.66771305    -1.13400
O525        O  0.01895343  0.28327956  0.72046910    -0.75800
O526        O  0.06063982  0.30292276  0.72080086    -0.79300
O527        O  0.07092930  0.26225158  0.62034009    -0.80000
C528        C  0.03997949  0.30077806  0.72961228     0.95300
O529        O  0.05738213  0.25312654  0.72117602    -0.77900
O530        O  0.49611584  0.27578803  0.66182471    -0.83100
C531        C  0.49808844  0.22130869  0.63118234     0.97900
C532        C  0.50072274  0.28535289  0.63550305     1.03800
O533        O  0.01682865  0.23709533  0.61594910    -0.78800
C534        C  0.03575337  0.23520877  0.72741579     1.02100
Fe535      Fe  0.23725462  0.11070291  0.52873669     1.65800
Fe536      Fe  0.17546626  0.08962881  0.52040337     1.73200
Fe537      Fe  0.21277318  0.10276346  0.95784252     1.54400
O538        O  0.24684796  0.13529692  0.96018798    -0.82500
O539        O  0.16026111  0.05614978  0.99447220    -0.80800
O540        O  0.25659520  0.14411301  0.50738168    -0.85000
O541        O  0.25307337  0.09531937  0.50117277    -0.79900
O542        O  0.19555803  0.12415848  0.95332526    -0.81600
O543        O  0.18149096  0.07180959  0.55727047    -0.84400
C544        C  0.24836548  0.08446382  0.97664609     0.96400
C545        C  0.25955056  0.14951289  0.98181000     1.03800
O546        O  0.20846028  0.10072961  0.50225088    -1.13400
O547        O  0.18884229  0.12273537  0.54458550    -0.75800
O548        O  0.22536367  0.12736669  0.56060562    -0.79300
O549        O  0.23110456  0.08209097  0.95857435    -0.80000
C550        C  0.20839490  0.13356145  0.56123123     0.95300
O551        O  0.22036716  0.07805695  0.55143533    -0.77900
O552        O  0.16315550  0.10453061  0.98421951    -0.83100
C553        C  0.16291267  0.05321645  0.96635826     0.97900
C554        C  0.17409920  0.11961048  0.96254874     1.03800
O555        O  0.17954380  0.07017655  0.94981433    -0.78800
C556        C  0.19904177  0.06715968  0.56383054     1.02100
Fe557      Fe  0.37964677  0.11556405  0.52847355     1.65800
Fe558      Fe  0.41520443  0.08724497  0.52260414     1.73200
Fe559      Fe  0.39537350  0.10428188  0.95903977     1.54400
O560        O  0.35721318  0.09368327  0.95840257    -0.82500
O561        O  0.44772021  0.10959557  0.99754092    -0.80800
O562        O  0.34677507  0.09729476  0.50442752    -0.85000
O563        O  0.39224546  0.14763358  0.50304000    -0.79900
O564        O  0.38480133  0.06708157  0.95357469    -0.81600
O565        O  0.43136902  0.11443471  0.55661938    -0.84400
C566        C  0.40336750  0.15609731  0.97821270     0.96400
C567        C  0.34106537  0.09087311  0.97842470     1.03800
O568        O  0.39661466  0.10218619  0.50298624    -1.13400
O569        O  0.38516287  0.06405209  0.54997453    -0.75800
O570        O  0.36495855  0.08536261  0.55783447    -0.79300
O571        O  0.40659332  0.14231401  0.95928768    -0.80000
C572        C  0.36774754  0.06651621  0.56232364     0.95300
O573        O  0.41075078  0.13556655  0.55474473    -0.77900
O574        O  0.40289434  0.05876256  0.99249095    -0.83100
C575        C  0.45074714  0.11572706  0.96968981     0.97900
C576        C  0.39082170  0.05266726  0.96739418     1.03800
O577        O  0.43267139  0.11366526  0.95325305    -0.78800
C578        C  0.42856339  0.13269163  0.56476074     1.02100
Fe579      Fe  0.38765763  0.26694181  0.52919192     1.65800
Fe580      Fe  0.41526523  0.32881669  0.51685696     1.73200
Fe581      Fe  0.39667024  0.28859163  0.95800869     1.54400
O582        O  0.41508734  0.26775042  0.95997258    -0.82500
O583        O  0.40027567  0.34077654  0.98168719    -0.80800
O584        O  0.40278292  0.24926997  0.50390528    -0.85000
O585        O  0.35405967  0.24790612  0.50737533    -0.79900
O586        O  0.43079174  0.32037952  0.94895072    -0.81600
O587        O  0.38335465  0.32041821  0.54222219    -0.84400
C588        C  0.34857543  0.24267166  0.98185054     0.96400
C589        C  0.41236718  0.25126253  0.97935116     1.03800
O590        O  0.40027937  0.29476908  0.50102515    -1.13400
O591        O  0.43310107  0.32271095  0.55408140    -0.75800
O592        O  0.41979716  0.28215350  0.55401404    -0.79300
O593        O  0.36272800  0.25557620  0.96031523    -0.80000
C594        C  0.43417345  0.30381538  0.56370509     0.95300
O595        O  0.37058971  0.28141578  0.55722329    -0.77900
O596        O  0.44701463  0.33844528  0.99327248    -0.83100
C597        C  0.38403848  0.33026035  0.96069146     0.97900
C598        C  0.44922327  0.33584069  0.96503314     1.03800
O599        O  0.37723062  0.30808367  0.95265301    -0.78800
C600        C  0.36873178  0.30107390  0.55732297     1.02100
Fe601      Fe  0.40470648  0.44851245  0.85877550     1.65800
Fe602      Fe  0.34095554  0.42200620  0.85042857     1.73200
Fe603      Fe  0.37984732  0.44036680  0.78758083     1.54400
O604        O  0.40897341  0.47707276  0.78979110    -0.82500
O605        O  0.32632653  0.39211864  0.82043211    -0.80800
O606        O  0.42366543  0.48220782  0.83702293    -0.85000
O607        O  0.42146959  0.43341833  0.83218040    -0.79900
O608        O  0.35597221  0.45433559  0.78273781    -0.81600
O609        O  0.34765762  0.39990707  0.88097292    -0.84400
C610        C  0.41970881  0.42588084  0.80503379     0.96400
C611        C  0.42364325  0.49062660  0.81074131     1.03800
O612        O  0.37505393  0.43684676  0.83219409    -1.13400
O613        O  0.35141599  0.45061656  0.88282218    -0.75800
O614        O  0.39223394  0.46554754  0.88872160    -0.79300
O615        O  0.40446006  0.42654198  0.78604801    -0.80000
C616        C  0.37211089  0.46536892  0.89595652     0.95300
O617        O  0.38926003  0.41618551  0.88378345    -0.77900
O618        O  0.32879136  0.44062107  0.82115130    -0.83100
C619        C  0.33154438  0.38860459  0.79352227     0.97900
C620        C  0.33604564  0.45111498  0.79537591     1.03800
O621        O  0.35086259  0.40452908  0.77925139    -0.78800
C622        C  0.36716301  0.39960869  0.89065277     1.02100
Fe623      Fe  0.04654918  0.45182936  0.85662475     1.65800
Fe624      Fe  0.08133915  0.42276204  0.85433790     1.73200
Fe625      Fe  0.06473315  0.44065073  0.78792315     1.54400
O626        O  0.02701277  0.43120249  0.78443368    -0.82500
O627        O  0.11411509  0.44314717  0.82993583    -0.80800
O628        O  0.01475260  0.43363952  0.83124529    -0.85000
O629        O  0.06019313  0.48358478  0.83081178    -0.79900
O630        O  0.05359520  0.40360602  0.78250529    -0.81600
O631        O  0.09676365  0.45001133  0.88803337    -0.84400
C632        C  0.07299258  0.49203275  0.80676795     0.96400
C633        C  0.01007318  0.42792765  0.80349708     1.03800
O634        O  0.06417738  0.43831282  0.83291321    -1.13400
O635        O  0.05085380  0.40051115  0.88131289    -0.75800
O636        O  0.03074702  0.42211018  0.88618466    -0.79300
O637        O  0.07702022  0.47853129  0.78845138    -0.80000
C638        C  0.03347866  0.40353569  0.89256901     0.95300
O639        O  0.07666442  0.47155540  0.88414672    -0.77900
O640        O  0.06757739  0.39349911  0.82368682    -0.83100
C641        C  0.11875109  0.45056078  0.80262033     0.97900
C642        C  0.05699806  0.38807897  0.79776456     1.03800
O643        O  0.10188134  0.44949063  0.78480811    -0.78800
C644        C  0.09383147  0.46831831  0.89550805     1.02100
Fe645      Fe  0.05522322  0.09980581  0.86398654     1.65800
Fe646      Fe  0.08213809  0.16265479  0.85504618     1.73200
Fe647      Fe  0.06572409  0.12468838  0.79227556     1.54400
O648        O  0.07775715  0.09852438  0.79267144    -0.82500
O649        O  0.06131296  0.17260510  0.82695914    -0.80800
O650        O  0.07229473  0.08391661  0.83975562    -0.85000
O651        O  0.02250359  0.08031877  0.83965511    -0.79900
O652        O  0.10274676  0.15187310  0.78573515    -0.81600
O653        O  0.05357393  0.15230096  0.88700853    -0.84400
C654        C  0.01434503  0.08135160  0.81346134     0.96400
C655        C  0.07918225  0.08437315  0.81254320     1.03800
O656        O  0.06775082  0.12906229  0.83705993    -1.13400
O657        O  0.10511505  0.15690340  0.88484857    -0.75800
O658        O  0.08677163  0.11583126  0.89131063    -0.79300
O659        O  0.02801840  0.09712298  0.79352921    -0.80000
C660        C  0.10448186  0.13772811  0.89624903     0.95300
O661        O  0.03576648  0.11126384  0.89156408    -0.77900
O662        O  0.11235982  0.17744133  0.82529652    -0.83100
C663        C  0.05280300  0.16736316  0.80007697     0.97900
C664        C  0.11784941  0.17159264  0.79986301     1.03800
O665        O  0.05397582  0.15047653  0.78500569    -0.78800
C666        C  0.03695841  0.13176217  0.89813470     1.02100
C667        C  0.09788416  0.03564683  0.82451381    -0.02700
C668        C  0.08371522  0.01897197  0.80122637     0.07000
C669        C  0.07627562  0.02786994  0.77602876    -0.02800
C670        C  0.07827888  0.05163456  0.77726886    -0.02800
C671        C  0.08734778  0.06609632  0.80408462     0.07100
C672        C  0.09966203  0.05915654  0.82606191    -0.03000
Br673      Br  0.11823558  0.08134833  0.85896514    -0.01500
Br674      Br  0.11437892  0.02593513  0.85464533    -0.01600
Br675      Br  0.06710534  0.06312611  0.74297283    -0.01600
Br676      Br  0.06201299  0.50704097  0.74086678    -0.01600
C677        C  0.45803594  0.02499757  0.77952444    -0.02700
C678        C  0.44211052  0.01729102  0.80518460     0.07000
C679        C  0.44664107  0.03473972  0.82843830    -0.02800
C680        C  0.46934056  0.05739130  0.82913405    -0.02800
C681        C  0.48777000  0.06268720  0.80670175     0.07100
C682        C  0.48117089  0.04747200  0.78054597    -0.03000
Br683      Br  0.00430030  0.05606620  0.74713792    -0.01500
Br684      Br  0.44875769  0.50502384  0.74324908    -0.01600
Br685      Br  0.47528237  0.08108784  0.86110505    -0.01600
Br686      Br  0.42153268  0.02769410  0.85923703    -0.01600
C687        C  0.45417025  0.42932535  0.77117264    -0.02700
C688        C  0.43742678  0.41739496  0.79544488     0.07000
C689        C  0.44155482  0.40155081  0.81473981    -0.02800
C690        C  0.46453583  0.40160441  0.81361225    -0.02800
C691        C  0.48366581  0.41818905  0.79396571     0.07100
C692        C  0.47758181  0.43003788  0.77066991    -0.03000
Br693      Br  0.00202248  0.44957893  0.74027391    -0.01500
Br694      Br  0.44645990  0.44677984  0.74040970    -0.01600
Br695      Br  0.47066509  0.38044303  0.84057327    -0.01600
Br696      Br  0.41635592  0.38105663  0.84395677    -0.01600
C697        C  0.35960759  0.35621961  0.89755341    -0.02700
C698        C  0.36468090  0.37904102  0.91042488     0.07000
C699        C  0.37098356  0.38342197  0.94135352    -0.02800
C700        C  0.37483905  0.36626308  0.95859214    -0.02800
C701        C  0.37387504  0.34505129  0.94444396     0.07100
C702        C  0.36473205  0.33949440  0.91397886    -0.03000
Br703      Br  0.36022791  0.31006471  0.89297841    -0.01500
Br704      Br  0.34599212  0.34831136  0.85695251    -0.01600
Br705      Br  0.38028369  0.37190344  0.00184310    -0.01600
Br706      Br  0.37392442  0.41306694  0.95992449    -0.01600
C707        C  0.98897644  0.37708236  0.95884583    -0.02700
C708        C  0.47370938  0.35199994  0.94975629     0.07000
C709        C  0.48133906  0.34296638  0.92456487    -0.02800
C710        C  0.50173063  0.35950040  0.90636388    -0.02800
C711        C  0.01536416  0.38492190  0.91404816     0.07100
C712        C  0.01007877  0.39310031  0.94149806    -0.03000
Br713      Br  0.03250973  0.42625333  0.95599871    -0.01500
Br714      Br  0.98072233  0.39089239  0.99358769    -0.01600
Br715      Br  0.50999095  0.34736359  0.87011220    -0.01600
Br716      Br  0.46465435  0.30783806  0.91519326    -0.01600
C717        C  0.48240821  0.13892300  0.92822485    -0.02700
C718        C  0.47578297  0.12412014  0.95492904     0.07000
C719        C  0.49180443  0.11483081  0.96482660    -0.02800
C720        C  0.01226351  0.11815597  0.94674415    -0.02800
C721        C  0.01749975  0.13117633  0.91894859     0.07100
C722        C  0.00254461  0.14166873  0.90991266    -0.03000
Br723      Br  0.00737830  0.15706597  0.87043098    -0.01500
Br724      Br  0.46470852  0.15648129  0.91664827    -0.01600
Br725      Br  0.03255441  0.10375793  0.95977015    -0.01600
Br726      Br  0.48608693  0.09660752  0.00252683    -0.01600
C727        C  0.35516437  0.49108539  0.92337183    -0.02700
C728        C  0.37409881  0.48427452  0.91949213     0.07000
C729        C  0.39659410  0.99756892  0.93684923    -0.02800
C730        C  0.40203653  0.01978452  0.95209693    -0.02800
C731        C  0.38422994  0.02811824  0.95300489     0.07100
C732        C  0.36037084  0.01302978  0.93950971    -0.03000
Br733      Br  0.33433797  0.02207583  0.94354526    -0.01500
Br734      Br  0.32126373  0.46972823  0.90938161    -0.01600
Br735      Br  0.43523926  0.03975991  0.96921412    -0.01600
Br736      Br  0.41961685  0.98472591  0.94282448    -0.01600
C737        C  0.40611042  0.21494191  0.94732970    -0.02700
C738        C  0.41870767  0.23149690  0.97161078     0.07000
C739        C  0.43162480  0.22498849  0.99314583    -0.02800
C740        C  0.42882648  0.20091746  0.99310844    -0.02800
C741        C  0.41280636  0.18298082  0.97178515     0.07100
C742        C  0.40296009  0.19063514  0.94760675    -0.03000
Br743      Br  0.38310162  0.16721936  0.91653552    -0.01500
Br744      Br  0.39071484  0.22439669  0.91543874    -0.01600
Br745      Br  0.44653462  0.19229121  0.02282563     0.01100
Br746      Br  0.45226585  0.24889069  0.02359000    -0.01600
C747        C  0.14151540  0.13350131  0.96243374    -0.02700
C748        C  0.16047607  0.13100890  0.94680518     0.07000
C749        C  0.16424234  0.13720643  0.91538302    -0.02800
C750        C  0.14708506  0.14215298  0.89952550    -0.02800
C751        C  0.12597437  0.14040249  0.91445470     0.07100
C752        C  0.12410874  0.13771539  0.94612031    -0.03000
Br753      Br  0.09778624  0.14014737  0.96702196    -0.01500
Br754      Br  0.13930830  0.13189904  0.00626574    -0.01600
Br755      Br  0.15165356  0.15030089  0.85679612    -0.01600
Br756      Br  0.19150720  0.13767317  0.89257667    -0.01600
C757        C  0.13733499  0.49530153  0.91735728    -0.02700
C758        C  0.11126895  0.48747733  0.91740875     0.07000
C759        C  0.10239830  0.50049305  0.93582129    -0.02800
C760        C  0.11937635  0.02167406  0.95221320    -0.02800
C761        C  0.14520812  0.02958512  0.95157579     0.07100
C762        C  0.15413254  0.01614281  0.93461636    -0.03000
Br763      Br  0.18959999  0.02657634  0.93456031    -0.01500
Br764      Br  0.15105244  0.47945728  0.89168298    -0.01600
Br765      Br  0.10741018  0.04152248  0.97297614    -0.01600
Br766      Br  0.06703748  0.49032723  0.93882035    -0.01600
C767        C  0.30646348  0.17344017  0.48150351    -0.02700
C768        C  0.28267478  0.17238847  0.97512048     0.07000
C769        C  0.28241688  0.19311789  0.96216955    -0.02800
C770        C  0.30468566  0.21629352  0.96187387    -0.02800
C771        C  0.32659424  0.21847800  0.97551449     0.07100
C772        C  0.32816834  0.19656030  0.48299951    -0.03000
Br773      Br  0.35769330  0.19832335  0.50136098    -0.01500
Br774      Br  0.30759776  0.14386995  0.49386832    -0.01600
Br775      Br  0.30477655  0.24501806  0.94462236    -0.01600
Br776      Br  0.25139291  0.18992517  0.94675654    -0.01600
C777        C  0.27157733  0.06259892  0.99104491    -0.02700
C778        C  0.26574720  0.07519690  0.96860009     0.07000
C779        C  0.28192898  0.08551105  0.94355017    -0.02800
C780        C  0.30622486  0.08812449  0.94448352    -0.02800
C781        C  0.31398942  0.08010875  0.97045622     0.07100
C782        C  0.29564548  0.06500249  0.99199703    -0.03000
Br783      Br  0.30360643  0.04853203  0.02384685    -0.01500
Br784      Br  0.24704980  0.04376899  0.02187095    -0.01600
Br785      Br  0.32908920  0.10476509  0.91153817    -0.01600
Br786      Br  0.27183564  0.09837841  0.90959426    -0.01600
C787        C  0.49477136  0.31390838  0.59915170    -0.02700
C788        C  0.48513849  0.29594527  0.62282111     0.07000
C789        C  0.45959937  0.28627081  0.63147586    -0.02800
C790        C  0.44341971  0.29120423  0.61351584    -0.02800
C791        C  0.45244835  0.30603193  0.58725815     0.07100
C792        C  0.47835030  0.31846189  0.58103692    -0.03000
Br793      Br  0.49094579  0.33967265  0.54578925    -0.01500
Br794      Br  0.03049697  0.33297283  0.59154304    -0.01600
Br795      Br  0.40811696  0.27628742  0.62364074    -0.01600
Br796      Br  0.44544431  0.26522633  0.66672467    -0.01600
C797        C  0.48980584  0.18368060  0.59961695    -0.02700
C798        C  0.48061215  0.19669435  0.61720444     0.07000
C799        C  0.45432891  0.18641333  0.62058554    -0.02800
C800        C  0.43762981  0.16387652  0.60623339    -0.02800
C801        C  0.44667053  0.15222663  0.58602185     0.07100
C802        C  0.47298589  0.16196102  0.58344718    -0.03000
Br803      Br  0.48655618  0.14699257  0.55627245    -0.01500
Br804      Br  0.02551895  0.19523073  0.59794625    -0.01600
Br805      Br  0.40205659  0.14904652  0.61486363    -0.01600
Br806      Br  0.44039167  0.20410656  0.64226715    -0.01600
C807        C  0.02588317  0.33135402  0.74517672    -0.02700
C808        C  0.04103609  0.32025363  0.75051017     0.07000
C809        C  0.05934913  0.32987086  0.77386454    -0.02800
C810        C  0.06272740  0.35035522  0.79136645    -0.02800
C811        C  0.04940143  0.36314221  0.78402936     0.07100
C812        C  0.03022146  0.35281637  0.76146485    -0.03000
Br813      Br  0.50916429  0.36743015  0.75237141    -0.01500
Br814      Br  0.50058945  0.31893043  0.71345912    -0.01600
Br815      Br  0.08653288  0.36047375  0.82476816    -0.01600
Br816      Br  0.08129509  0.31609562  0.78148832    -0.01600
C817        C  0.04326294  0.22227968  0.77840090    -0.02700
C818        C  0.03428083  0.21580678  0.74852861     0.07000
C819        C  0.02571254  0.19134678  0.73844313    -0.02800
C820        C  0.02929561  0.17449696  0.75669643    -0.02800
C821        C  0.04260103  0.18244669  0.78482034     0.07100
C822        C  0.04785300  0.20606798  0.79647335    -0.03000
Br823      Br  0.06176460  0.21766198  0.83665448    -0.01500
Br824      Br  0.04793008  0.25310324  0.79499444    -0.01600
Br825      Br  0.01471554  0.14042690  0.74286474    -0.01600
Br826      Br  0.50969876  0.18119819  0.69908584    -0.01600
C827        C  0.20945370  0.05754344  0.61413636    -0.02700
C828        C  0.19562049  0.04884887  0.58706489     0.07000
C829        C  0.18519144  0.02376864  0.57878804    -0.02800
C830        C  0.19041383  0.00780378  0.59631566    -0.02800
C831        C  0.20769281  0.01747300  0.62086010     0.07100
C832        C  0.21637584  0.04229209  0.63051010    -0.03000
Br833      Br  0.24040522  0.05712901  0.66326872    -0.01500
Br834      Br  0.22061274  0.09130371  0.62702694    -0.01600
Br835      Br  0.17389929  0.47290721  0.58605821    -0.01600
Br836      Br  0.16604958  0.01209872  0.54159213    -0.01600
C837        C  0.31013661  0.00643022  0.58497334    -0.02700
C838        C  0.30499323  0.01285958  0.61425127     0.07000
C839        C  0.32448426  0.03433890  0.62874576    -0.02800
C840        C  0.34595749  0.05121054  0.61227658    -0.02800
C841        C  0.34900953  0.04634673  0.58187807     0.07100
C842        C  0.33230857  0.02299970  0.56930305    -0.03000
Br843      Br  0.33939621  0.01421474  0.52979245    -0.01500
Br844      Br  0.28742468  0.47557415  0.56475354    -0.01600
Br845      Br  0.37215832  0.08064777  0.63158014    -0.01600
Br846      Br  0.32335362  0.04048348  0.67166144    -0.01600
C847        C  0.15848316  0.44773868  0.79752394    -0.02700
C848        C  0.14445549  0.45974431  0.79010491     0.07000
C849        C  0.15382831  0.47859302  0.76760448    -0.02800
C850        C  0.17464225  0.48270558  0.74977806    -0.02800
C851        C  0.18694323  0.46884476  0.75523671     0.07100
C852        C  0.17984659  0.45262998  0.78037193    -0.03000
Br853      Br  0.19907840  0.43635852  0.79059067    -0.01500
Br854      Br  0.14774721  0.42276014  0.82903366    -0.01600
Br855      Br  0.18446653  0.00544650  0.71592688    -0.01600
Br856      Br  0.13826648  0.99894023  0.76082318    -0.01600
C857        C  0.30705930  0.46948319  0.79050264    -0.02700
C858        C  0.31982597  0.45797453  0.77725911     0.07000
C859        C  0.31640207  0.45194927  0.74580915    -0.02800
C860        C  0.30115188  0.45806688  0.72805756    -0.02800
C861        C  0.28732659  0.46797705  0.74176844     0.07100
C862        C  0.29038000  0.47395554  0.77284582    -0.03000
Br863      Br  0.27114525  0.48766541  0.79104324    -0.01500
Br864      Br  0.31229881  0.47936214  0.83244734    -0.01600
Br865      Br  0.29850701  0.45231227  0.68470033    -0.01600
Br866      Br  0.32956623  0.43236170  0.72691307    -0.01600
C867        C  0.12883444  0.39314172  0.66128770    -0.02700
C868        C  0.14700297  0.40012449  0.63821624     0.07000
C869        C  0.14171262  0.38458975  0.61253464    -0.02800
C870        C  0.12070415  0.36037387  0.61269402    -0.02800
C871        C  0.10464121  0.35200055  0.63814314     0.07100
C872        C  0.10759957  0.36925576  0.66109468    -0.03000
Br873      Br  0.08299020  0.36000789  0.69293970    -0.01500
Br874      Br  0.13410033  0.41584981  0.69431725    -0.01600
Br875      Br  0.11591901  0.33792236  0.57980467    -0.01600
Br876      Br  0.16512090  0.39491804  0.57915780    -0.01600
C877        C  0.32729322  0.30442401  0.61984636    -0.02700
C878        C  0.30322090  0.29045273  0.60649511     0.07000
C879        C  0.30136869  0.28249658  0.57597467    -0.02800
C880        C  0.32313669  0.28747899  0.55965471    -0.02800
C881        C  0.34696474  0.30001184  0.57357939     0.07100
C882        C  0.34912026  0.30921132  0.60337589    -0.03000
Br883      Br  0.38196745  0.32833606  0.62135678    -0.01500
Br884      Br  0.33040080  0.31764809  0.66025048    -0.01600
Br885      Br  0.32042139  0.27713143  0.51780691    -0.01600
Br886      Br  0.26892912  0.26305039  0.55669628    -0.01600
C887        C  0.24081209  0.19416600  0.60658959    -0.02700
C888        C  0.22023005  0.19530796  0.61887652     0.07000
C889        C  0.19573138  0.17552292  0.61420195    -0.02800
C890        C  0.19173433  0.15478590  0.59650193    -0.02800
C891        C  0.21226365  0.15445628  0.58184382     0.07100
C892        C  0.23696366  0.17451413  0.58719336    -0.03000
Br893      Br  0.26605045  0.17730768  0.56620963    -0.01500
Br894      Br  0.27455024  0.22008499  0.61612672    -0.01600
Br895      Br  0.15816545  0.12676630  0.59369815    -0.01600
Br896      Br  0.16778203  0.17715445  0.63216062    -0.01600
C897        C  0.28936641  0.36252114  0.76981321    -0.02700
C898        C  0.31325160  0.36575025  0.77709922     0.07000
C899        C  0.31979291  0.34799892  0.76721379    -0.02800
C900        C  0.30224795  0.32660976  0.75108589    -0.02800
C901        C  0.27868798  0.32395535  0.74173300     0.07100
C902        C  0.27251406  0.34240122  0.75149291    -0.03000
Br903      Br  0.24178076  0.34207042  0.73928668    -0.01500
Br904      Br  0.28022982  0.38682705  0.78362304    -0.01600
Br905      Br  0.31057549  0.30055636  0.74432080    -0.01600
Br906      Br  0.35303303  0.35310493  0.77577258    -0.01600
C907        C  0.15097308  0.21502639  0.78552229    -0.02700
C908        C  0.14232561  0.18912148  0.78524152     0.07000
C909        C  0.15620646  0.18014472  0.76880970    -0.02800
C910        C  0.17674010  0.19640968  0.75044191    -0.02800
C911        C  0.18441800  0.22197097  0.74957912     0.07100
C912        C  0.17235764  0.23132021  0.76866888    -0.03000
Br913      Br  0.18468615  0.26681096  0.77097293    -0.01500
Br914      Br  0.13221757  0.22857999  0.80579683    -0.01600
Br915      Br  0.19276418  0.18326626  0.72438761    -0.01600
Br916      Br  0.14730823  0.14554962  0.77126268    -0.01600
C917        C  0.25036306  0.38669468  0.62262123    -0.02700
C918        C  0.22908533  0.38754525  0.63345263     0.07000
C919        C  0.20644834  0.36528601  0.63823759    -0.02800
C920        C  0.20539291  0.34243979  0.63397934    -0.02800
C921        C  0.22739541  0.34150606  0.62735567     0.07100
C922        C  0.24972413  0.36354600  0.62041275    -0.03000
Br923      Br  0.27948774  0.36191517  0.61002989    -0.01500
Br924      Br  0.28043531  0.41702680  0.61260742    -0.01600
Br925      Br  0.17388102  0.31237299  0.64001688    -0.01600
Br926      Br  0.17707836  0.36541440  0.65371587    -0.01600
C927        C  0.12698454  0.23176151  0.64944056    -0.02700
C928        C  0.14512405  0.24488529  0.62706287     0.07000
C929        C  0.13896863  0.25577463  0.60271909    -0.02800
C930        C  0.11712959  0.25815180  0.60431923    -0.02800
C931        C  0.10147992  0.24926481  0.63021592     0.07100
C932        C  0.10502279  0.23367547  0.65081764    -0.03000
Br933      Br  0.08042208  0.21592693  0.68193226    -0.01500
Br934      Br  0.13361270  0.21322080  0.67994075    -0.01600
Br935      Br  0.11054519  0.27576278  0.57263453    -0.01600
Br936      Br  0.16222953  0.27043322  0.56950473    -0.01600
Fe937      Fe  0.20971692  0.78107074  0.18824865     1.65800
Fe938      Fe  0.24768485  0.75647632  0.18233854     1.73200
Fe939      Fe  0.22326638  0.76843378  0.11827464     1.54400
O940        O  0.18429013  0.74990572  0.11947866    -0.82500
O941        O  0.27508919  0.77056088  0.14833726    -0.80800
O942        O  0.17845394  0.76709036  0.16077319    -0.85000
O943        O  0.22631295  0.81412817  0.16586402    -0.79900
O944        O  0.22146938  0.73413061  0.11405368    -0.81600
O945        O  0.26852019  0.79024505  0.20528504    -0.84400
C946        C  0.22646826  0.81839467  0.13772638     0.96400
C947        C  0.17028908  0.75414541  0.13683076     1.03800
O948        O  0.22677115  0.76837370  0.16271123    -1.13400
O949        O  0.22254818  0.73994778  0.21932236    -0.75800
O950        O  0.19184484  0.74895300  0.21176990    -0.79300
O951        O  0.22408098  0.80278543  0.11727172    -0.80000
C952        C  0.20088746  0.73722704  0.22560354     0.95300
O953        O  0.23798061  0.79675745  0.22072646    -0.77900
O954        O  0.22916093  0.72269828  0.15946501    -0.83100
C955        C  0.27845944  0.78244873  0.12352826     0.97900
C956        C  0.22257078  0.71830584  0.13163380     1.03800
O957        O  0.26178255  0.78664580  0.11202887    -0.78800
C958        C  0.26092042  0.80244761  0.22116520     1.02100
Fe959      Fe  0.21469664  0.93441553  0.19711939     1.65800
Fe960      Fe  0.24704059  0.49668053  0.18551458     1.73200
Fe961      Fe  0.22626877  0.95727166  0.12519497     1.54400
O962        O  0.22861213  0.92490724  0.12598037    -0.82500
O963        O  0.22394690  0.50569789  0.16120005    -0.80800
O964        O  0.22971018  0.91561543  0.17459548    -0.85000
O965        O  0.18194296  0.91674786  0.17183885    -0.79900
O966        O  0.26489213  0.97745299  0.12043067    -0.81600
O967        O  0.22279653  0.98985314  0.22193838    -0.84400
C968        C  0.17373839  0.91931627  0.14622608     0.96400
C969        C  0.23013351  0.91134241  0.14654319     1.03800
O970        O  0.22932513  0.96264203  0.16941585    -1.13400
O971        O  0.27074216  0.48933145  0.21171234    -0.75800
O972        O  0.24612623  0.94948725  0.22495132    -0.79300
O973        O  0.18741363  0.93595458  0.12712872    -0.80000
C974        C  0.26664246  0.96998659  0.22643677     0.95300
O975        O  0.19737160  0.94897206  0.22285863    -0.77900
O976        O  0.27416737  0.50919540  0.15104871    -0.83100
C977        C  0.21834177  0.50279655  0.13326090     0.97900
C978        C  0.28029745  0.49905156  0.12996438     1.03800
O979        O  0.22243651  0.98836935  0.11664226    -0.78800
C980        C  0.20357427  0.97064235  0.23184468     1.02100
Fe981      Fe  0.07152554  0.78540654  0.19339990     1.65800
Fe982      Fe  0.50776772  0.75768033  0.18950545     1.73200
Fe983      Fe  0.04320244  0.77495548  0.12387807     1.54400
O984        O  0.07052245  0.81244654  0.12435770    -0.82500
O985        O  0.49180288  0.72802702  0.15912426    -0.80800
O986        O  0.09060841  0.81732811  0.16820781    -0.85000
O987        O  0.08530267  0.76691132  0.16838848    -0.79900
O988        O  0.01665086  0.78654192  0.12019346    -0.81600
O989        O  0.01521390  0.73510076  0.21754514    -0.84400
C990        C  0.08365882  0.75998577  0.14098996     0.96400
C991        C  0.08757053  0.82579868  0.14331164     1.03800
O992        O  0.04075721  0.77250086  0.16884430    -1.13400
O993        O  0.01956837  0.78534058  0.22279560    -0.75800
O994        O  0.06104356  0.80554193  0.22005812    -0.79300
O995        O  0.06983509  0.76297818  0.12163989    -0.80000
C996        C  0.04084707  0.80325134  0.23061948     0.95300
O997        O  0.05680068  0.75560597  0.22307235    -0.77900
O998        O  0.49636034  0.77863050  0.16411363    -0.83100
C999        C  0.49693417  0.72284434  0.13302409     0.97900
C1000       C  0.50051303  0.78755971  0.13744947     1.03800
O1001       O  0.01588708  0.73826167  0.11785589    -0.78800
C1002       C  0.03528104  0.73753285  0.22931683     1.02100
Fe1003     Fe  0.23534263  0.60987348  0.02937286     1.65800
Fe1004     Fe  0.17400950  0.58883887  0.01879772     1.73200
Fe1005     Fe  0.21263934  0.60235353  0.45795375     1.54400
O1006       O  0.24681842  0.63497546  0.45841226    -0.82500
O1007       O  0.16065406  0.55656934  0.49684587    -0.80800
O1008       O  0.25451096  0.64400254  0.00961424    -0.85000
O1009       O  0.25260238  0.59596701  0.00174224    -0.79900
O1010       O  0.19503422  0.62351570  0.45354576    -0.81600
O1011       O  0.17939418  0.57055631  0.05581596    -0.84400
C1012       C  0.24836410  0.58376338  0.47608187     0.96400
C1013       C  0.26064409  0.64925345  0.47937071     1.03800
O1014       O  0.20735991  0.60029750  0.00185061    -1.13400
O1015       O  0.18672726  0.62172519  0.04350846    -0.75800
O1016       O  0.22201106  0.62494628  0.06170179    -0.79300
O1017       O  0.23106895  0.58172343  0.45826860    -0.80000
C1018       C  0.20563640  0.63191927  0.06126566     0.95300
O1019       O  0.21813828  0.57639453  0.05013881    -0.77900
O1020       O  0.16385915  0.60485895  0.48614461    -0.83100
C1021       C  0.16273462  0.55316449  0.46875189     0.97900
C1022       C  0.17391908  0.61931163  0.46373432     1.03800
O1023       O  0.17929261  0.56961031  0.45164458    -0.78800
C1024       C  0.19672405  0.56553527  0.06233190     1.02100
Fe1025     Fe  0.38012632  0.61621669  0.02932453     1.65800
Fe1026     Fe  0.41607704  0.58826110  0.02356230     1.73200
Fe1027     Fe  0.39529117  0.60420111  0.45808982     1.54400
O1028       O  0.35711515  0.59349572  0.45709685    -0.82500
O1029       O  0.44694782  0.60871944  0.49713760    -0.80800
O1030       O  0.34712468  0.59768544  0.00571725    -0.85000
O1031       O  0.39236106  0.64796696  0.00344034    -0.79900
O1032       O  0.38471364  0.56704709  0.45208038    -0.81600
O1033       O  0.43221176  0.61581277  0.05748513    -0.84400
C1034       C  0.40338545  0.65591625  0.47790401     0.96400
C1035       C  0.34086464  0.59054424  0.47704335     1.03800
O1036       O  0.39712969  0.60280032  0.00391143    -1.13400
O1037       O  0.38614460  0.56514467  0.05124890    -0.75800
O1038       O  0.36574736  0.58628841  0.05902262    -0.79300
O1039       O  0.40650595  0.64217970  0.45882687    -0.80000
C1040       C  0.36865904  0.56753042  0.06357773     0.95300
O1041       O  0.41122028  0.63654785  0.05537686    -0.77900
O1042       O  0.40211967  0.55812218  0.49126151    -0.83100
C1043       C  0.45050209  0.61569353  0.46963252     0.97900
C1044       C  0.39036538  0.55240524  0.46598207     1.03800
O1045       O  0.43275022  0.61394606  0.45279591    -0.78800
C1046       C  0.42905470  0.63387760  0.06571044     1.02100
Fe1047     Fe  0.38763766  0.76749459  0.03061947     1.65800
Fe1048     Fe  0.41465745  0.82900181  0.01736958     1.73200
Fe1049     Fe  0.39784700  0.78886016  0.45693685     1.54400
O1050       O  0.41642843  0.76815773  0.45915294    -0.82500
O1051       O  0.40028027  0.84050484  0.48170238    -0.80800
O1052       O  0.40234809  0.74947718  0.00520918    -0.85000
O1053       O  0.35374280  0.74832341  0.00952519    -0.79900
O1054       O  0.43191606  0.82086724  0.44821366    -0.81600
O1055       O  0.38248987  0.82069513  0.04221249    -0.84400
C1056       C  0.34951946  0.74234977  0.47967441     0.96400
C1057       C  0.41328071  0.75139889  0.47835834     1.03800
O1058       O  0.39963381  0.79489019  0.00201789    -1.13400
O1059       O  0.43221005  0.82331739  0.05518532    -0.75800
O1060       O  0.42027145  0.78308748  0.05462468    -0.79300
O1061       O  0.36402589  0.75554654  0.45853800    -0.80000
C1062       C  0.43402148  0.80478913  0.06461719     0.95300
O1063       O  0.37095878  0.78232543  0.05883389    -0.77900
O1064       O  0.44774567  0.83919223  0.49252936    -0.83100
C1065       C  0.38437089  0.83016159  0.46030438     0.97900
C1066       C  0.45007232  0.83674886  0.46428723     1.03800
O1067       O  0.37831433  0.80831968  0.45145522    -0.78800
C1068       C  0.36833841  0.80155715  0.05797496     1.02100
Fe1069     Fe  0.40420920  0.94821644  0.35864238     1.65800
Fe1070     Fe  0.34047749  0.92179892  0.35012636     1.73200
Fe1071     Fe  0.37956149  0.94114088  0.28749459     1.54400
O1072       O  0.40905825  0.97774309  0.29045008    -0.82500
O1073       O  0.32608150  0.89201760  0.31991836    -0.80800
O1074       O  0.42328622  0.98232128  0.33782029    -0.85000
O1075       O  0.42102952  0.93360266  0.33149194    -0.79900
O1076       O  0.35610362  0.95570546  0.28330137    -0.81600
O1077       O  0.34727712  0.89966283  0.38076205    -0.84400
C1078       C  0.41908518  0.92608551  0.30431947     0.96400
C1079       C  0.42356274  0.99108085  0.31168088     1.03800
O1080       O  0.37462999  0.93691281  0.33201693    -1.13400
O1081       O  0.35082206  0.95032209  0.38250161    -0.75800
O1082       O  0.39146971  0.96459881  0.38901720    -0.79300
O1083       O  0.40378858  0.92684677  0.28547864    -0.80000
C1084       C  0.37145552  0.96471848  0.39596105     0.95300
O1085       O  0.38884811  0.91559756  0.38294266    -0.77900
O1086       O  0.32826942  0.94056200  0.32097647    -0.83100
C1087       C  0.33119081  0.88907891  0.29270806     0.97900
C1088       C  0.33594496  0.95199910  0.29578141     1.03800
O1089       O  0.35024815  0.90550152  0.27846810    -0.78800
C1090       C  0.36679257  0.89919484  0.39016456     1.02100
Fe1091     Fe  0.04658904  0.95406811  0.35627513     1.65800
Fe1092     Fe  0.08204386  0.92580074  0.35359058     1.73200
Fe1093     Fe  0.06447572  0.94299083  0.28755803     1.54400
O1094       O  0.02676309  0.93333741  0.28443431    -0.82500
O1095       O  0.11494128  0.94812153  0.33002921    -0.80800
O1096       O  0.01449585  0.93503782  0.33146470    -0.85000
O1097       O  0.05924320  0.98556134  0.33006839    -0.79900
O1098       O  0.05329216  0.90605455  0.28223005    -0.81600
O1099       O  0.09573455  0.95186184  0.38861477    -0.84400
C1100       C  0.07212175  0.99409037  0.30608991     0.96400
C1101       C  0.00976132  0.92942547  0.30367978     1.03800
O1102       O  0.06426083  0.94078031  0.33242007    -1.13400
O1103       O  0.05106823  0.90226606  0.37943734    -0.75800
O1104       O  0.03179672  0.92451851  0.38615223    -0.79300
O1105       O  0.07660050  0.98077666  0.28801147    -0.80000
C1106       C  0.03415193  0.90558370  0.39172684     0.95300
O1107       O  0.07705547  0.97454619  0.38317128    -0.77900
O1108       O  0.07058359  0.89743655  0.32180583    -0.83100
C1109       C  0.11912826  0.95470380  0.30235529     0.97900
C1110       C  0.05901636  0.89168226  0.29645038     1.03800
O1111       O  0.10165101  0.95191110  0.28436838    -0.78800
C1112       C  0.09336070  0.97054478  0.39564211     1.02100
Fe1113     Fe  0.05481826  0.60128440  0.36428659     1.65800
Fe1114     Fe  0.08271953  0.66432564  0.35650225     1.73200
Fe1115     Fe  0.06468507  0.62683253  0.29312563     1.54400
O1116       O  0.07611268  0.60019121  0.29252979    -0.82500
O1117       O  0.06243734  0.67561574  0.32901179    -0.80800
O1118       O  0.07222928  0.58595692  0.33970220    -0.85000
O1119       O  0.02221096  0.58180864  0.33978294    -0.79900
O1120       O  0.10180472  0.65357168  0.28638717    -0.81600
O1121       O  0.05430819  0.65405592  0.38867799    -0.84400
C1122       C  0.01358230  0.58321402  0.31407869     0.96400
C1123       C  0.07833845  0.58631077  0.31215133     1.03800
O1124       O  0.06742470  0.63084041  0.33793007    -1.13400
O1125       O  0.10538218  0.65764819  0.38591126    -0.75800
O1126       O  0.08596509  0.61659791  0.39229495    -0.79300
O1127       O  0.02679908  0.59959042  0.29448236    -0.80000
C1128       C  0.10408884  0.63820625  0.39740442     0.95300
O1129       O  0.03536514  0.61279415  0.39160038    -0.77900
O1130       O  0.11287676  0.67847590  0.32668779    -0.83100
C1131       C  0.05322363  0.67041724  0.30240406     0.97900
C1132       C  0.11778300  0.67261281  0.30091734     1.03800
O1133       O  0.05349595  0.65316688  0.28707370    -0.78800
C1134       C  0.03718789  0.63341666  0.39903943     1.02100
C1135       C  0.09752055  0.53789688  0.32283742    -0.02700
C1136       C  0.08251501  0.52094725  0.30022853     0.07000
C1137       C  0.07418262  0.52949141  0.27552281    -0.02800
C1138       C  0.07655620  0.55339741  0.27662229    -0.02800
C1139       C  0.08648918  0.56817360  0.30303941     0.07100
C1140       C  0.09946983  0.56148126  0.32435647    -0.03000
Br1141     Br  0.11921339  0.58416352  0.35629476    -0.01500
Br1142     Br  0.11478589  0.52840129  0.35218066    -0.01600
Br1143     Br  0.06495722  0.56479791  0.24265614    -0.01600
Br1144     Br  0.05796525  0.00785766  0.24155290    -0.01600
C1145       C  0.45790071  0.52599518  0.28074353    -0.02700
C1146       C  0.44215513  0.51788104  0.30659839     0.07000
C1147       C  0.44660846  0.53517356  0.33009896    -0.02800
C1148       C  0.46889405  0.55824887  0.33047754    -0.02800
C1149       C  0.48706958  0.56418870  0.30755839     0.07100
C1150       C  0.48055233  0.54898850  0.28141903    -0.03000
Br1151     Br  0.00319862  0.55853847  0.24743969    -0.01500
Br1152     Br  0.44928928  0.00571280  0.24478061    -0.01600
Br1153     Br  0.47470353  0.58178118  0.36265078    -0.01600
Br1154     Br  0.42203160  0.52746966  0.36175834    -0.01600
C1155       C  0.45341103  0.92932657  0.27041222    -0.02700
C1156       C  0.43664040  0.91745285  0.29465311     0.07000
C1157       C  0.44086573  0.90184256  0.31423523    -0.02800
C1158       C  0.46422251  0.90265617  0.31401328    -0.02800
C1159       C  0.48324814  0.91911759  0.29414048     0.07100
C1160       C  0.47681807  0.93003946  0.27004396    -0.03000
Br1161     Br  0.00059573  0.94794612  0.23834811    -0.01500
Br1162     Br  0.44583816  0.94689245  0.23966273    -0.01600
Br1163     Br  0.47081621  0.88263362  0.34238376    -0.01600
Br1164     Br  0.41517938  0.88069486  0.34260074    -0.01600
C1165       C  0.35834750  0.85549702  0.39801925    -0.02700
C1166       C  0.36446647  0.87881102  0.41027589     0.07000
C1167       C  0.37195093  0.88381568  0.44083920    -0.02800
C1168       C  0.37588321  0.86673917  0.45818269    -0.02800
C1169       C  0.37380009  0.84487307  0.44446131     0.07100
C1170       C  0.36317502  0.83862682  0.41465575    -0.03000
Br1171     Br  0.35540084  0.80761486  0.39508988    -0.01500
Br1172     Br  0.34399680  0.84722225  0.35777227    -0.01600
Br1173     Br  0.38278342  0.87343285  0.50111538    -0.01600
Br1174     Br  0.37663174  0.91435658  0.45877872    -0.01600
C1175       C  0.98838769  0.87896526  0.45710669    -0.02700
C1176       C  0.47440218  0.85352899  0.44901603     0.07000
C1177       C  0.48311177  0.84458036  0.42487341    -0.02800
C1178       C  0.50326949  0.86130692  0.40647828    -0.02800
C1179       C  0.01602130  0.88694494  0.41338414     0.07100
C1180       C  0.00961481  0.89525590  0.44004568    -0.03000
Br1181     Br  0.03055539  0.92899919  0.45400282    -0.01500
Br1182     Br  0.97785904  0.89271125  0.48979477    -0.01600
Br1183     Br  0.51211536  0.84892896  0.37092954    -0.01600
Br1184     Br  0.46818540  0.80927550  0.41742653    -0.01600
C1185       C  0.48355756  0.64129037  0.43073701    -0.02700
C1186       C  0.47588508  0.62475365  0.45581142     0.07000
C1187       C  0.49129288  0.61457983  0.46490730    -0.02800
C1188       C  0.01173837  0.61811610  0.44678522    -0.02800
C1189       C  0.01795982  0.63278716  0.42021077     0.07100
C1190       C  0.00407927  0.64479411  0.41265151    -0.03000
Br1191     Br  0.01104751  0.66373013  0.37550643    -0.01500
Br1192     Br  0.46668721  0.66008746  0.42142501    -0.01600
Br1193     Br  0.03048412  0.60161233  0.45801144    -0.01600
Br1194     Br  0.48485242  0.59506746  0.50166478    -0.01600
C1195       C  0.35439702  0.99011454  0.42379877    -0.02700
C1196       C  0.37360582  0.98374451  0.41930471     0.07000
C1197       C  0.39665873  0.49790225  0.43538363    -0.02800
C1198       C  0.40220422  0.52048922  0.44953783    -0.02800
C1199       C  0.38387746  0.52802431  0.45154600     0.07100
C1200       C  0.35963769  0.51221980  0.43954865    -0.03000
Br1201     Br  0.33332231  0.52067710  0.44502075    -0.01500
Br1202     Br  0.32024035  0.96805989  0.41113900    -0.01600
Br1203     Br  0.43623692  0.54231383  0.46301145    -0.01600
Br1204     Br  0.42058315  0.48610440  0.44104254    -0.01600
C1205       C  0.40710917  0.71505816  0.44649099    -0.02700
C1206       C  0.41967762  0.73166112  0.47073522     0.07000
C1207       C  0.43225793  0.72503710  0.49259421    -0.02800
C1208       C  0.42888702  0.70074717  0.49313086    -0.02800
C1209       C  0.41304106  0.68286764  0.47161778     0.07100
C1210       C  0.40381787  0.69069816  0.44695097    -0.03000
Br1211     Br  0.38461848  0.66746074  0.41537158    -0.01500
Br1212     Br  0.39170770  0.72445428  0.41456141    -0.01600
Br1213     Br  0.44557616  0.69183023  0.52391042     0.01100
Br1214     Br  0.45320142  0.74916282  0.52267403    -0.01600
C1215       C  0.13938429  0.63090753  0.46369260    -0.02700
C1216       C  0.15961114  0.63032415  0.44836734     0.07000
C1217       C  0.16424617  0.63834723  0.41749441    -0.02800
C1218       C  0.14701007  0.64322461  0.40161042    -0.02800
C1219       C  0.12517343  0.64015293  0.41603136     0.07100
C1220       C  0.12226659  0.63560753  0.44738736    -0.03000
Br1221     Br  0.09503144  0.63655739  0.46804819    -0.01500
Br1222     Br  0.13462943  0.62588932  0.50718465    -0.01600
Br1223     Br  0.15249814  0.65305475  0.35935479    -0.01600
Br1224     Br  0.19317662  0.64197928  0.39534669    -0.01600
C1225       C  0.13583360  0.99460391  0.42147620    -0.02700
C1226       C  0.11041805  0.98902392  0.41847843     0.07000
C1227       C  0.10203051  0.00320614  0.43542476    -0.02800
C1228       C  0.11915927  0.52377526  0.45260973    -0.02800
C1229       C  0.14442049  0.52964992  0.45449896     0.07100
C1230       C  0.15259277  0.51468977  0.43973400    -0.03000
Br1231     Br  0.18715680  0.52224030  0.44409422    -0.01500
Br1232     Br  0.14905157  0.97664449  0.39906575    -0.01600
Br1233     Br  0.10855140  0.54548402  0.47132338    -0.01600
Br1234     Br  0.06720461  0.99541724  0.43552271    -0.01600
C1235       C  0.30523825  0.67405431  0.98526997    -0.02700
C1236       C  0.28384542  0.67185948  0.47169526     0.07000
C1237       C  0.28362865  0.69271751  0.45909139    -0.02800
C1238       C  0.30587844  0.71592635  0.45913627    -0.02800
C1239       C  0.32776379  0.71806474  0.47274382     0.07100
C1240       C  0.32696380  0.69712311  0.98633512    -0.03000
Br1241     Br  0.35666578  0.69899973  0.00435816    -0.01500
Br1242     Br  0.30638132  0.64464854  0.99830842    -0.01600
Br1243     Br  0.30594727  0.74489116  0.44278440    -0.01600
Br1244     Br  0.25266073  0.68971661  0.44388778    -0.01600
C1245       C  0.27145708  0.56161110  0.48981387    -0.02700
C1246       C  0.26540109  0.57418983  0.46756333     0.07000
C1247       C  0.28139634  0.58453803  0.44235405    -0.02800
C1248       C  0.30585724  0.58755083  0.44316170    -0.02800
C1249       C  0.31378926  0.57950605  0.46894923     0.07100
C1250       C  0.29553392  0.56402357  0.49031871    -0.03000
Br1251     Br  0.30369778  0.54700482  0.52122518    -0.01500
Br1252     Br  0.24739427  0.54302698  0.52117037    -0.01600
Br1253     Br  0.32869105  0.60478553  0.41039820    -0.01600
Br1254     Br  0.27081711  0.59698110  0.40842404    -0.01600
C1255       C  0.49468759  0.81629300  0.10139970    -0.02700
C1256       C  0.48502485  0.79829230  0.12495266     0.07000
C1257       C  0.45945425  0.78849112  0.13342068    -0.02800
C1258       C  0.44316024  0.79284122  0.11490945    -0.02800
C1259       C  0.45222741  0.80749257  0.08852777     0.07100
C1260       C  0.47822987  0.82047259  0.08284603    -0.03000
Br1261     Br  0.49099564  0.84203866  0.04795607    -0.01500
Br1262     Br  0.03051796  0.83599258  0.09494665    -0.01600
Br1263     Br  0.40773157  0.77739741  0.12447623    -0.01600
Br1264     Br  0.44559130  0.76829940  0.16934299    -0.01600
C1265       C  0.48930826  0.68469587  0.10304299    -0.02700
C1266       C  0.47969866  0.69805802  0.11920363     0.07000
C1267       C  0.45338792  0.68803413  0.12104170    -0.02800
C1268       C  0.43705881  0.66534799  0.10666331    -0.02800
C1269       C  0.44660687  0.65343202  0.08752340     0.07100
C1270       C  0.47295518  0.66290076  0.08662775    -0.03000
Br1271     Br  0.48728129  0.64730108  0.06170933    -0.01500
Br1272     Br  0.02498067  0.69595235  0.10364837    -0.01600
Br1273     Br  0.40131612  0.65058578  0.11412411    -0.01600
Br1274     Br  0.43913474  0.70641421  0.14038922    -0.01600
C1275       C  0.02433912  0.83048029  0.25313504    -0.02700
C1276       C  0.04305414  0.82318233  0.25179265     0.07000
C1277       C  0.06604720  0.83762598  0.26772806    -0.02800
C1278       C  0.07141873  0.86034304  0.28105917    -0.02800
C1279       C  0.05289185  0.86760358  0.28227980     0.07100
C1280       C  0.02913525  0.85234228  0.26882178    -0.03000
Br1281     Br  0.50314552  0.86163441  0.27115631    -0.01500
Br1282     Br  0.49239729  0.81189229  0.23245184    -0.01600
Br1283     Br  0.10557852  0.88298665  0.29376932    -0.01600
Br1284     Br  0.09079525  0.82678382  0.27240943    -0.01600
C1285       C  0.04470657  0.72602922  0.28019447    -0.02700
C1286       C  0.03410391  0.71862632  0.25106957     0.07000
C1287       C  0.02448676  0.69373221  0.24208844    -0.02800
C1288       C  0.02822181  0.67713347  0.26061956    -0.02800
C1289       C  0.04303417  0.68574217  0.28761568     0.07100
C1290       C  0.04968241  0.71002831  0.29828813    -0.03000
Br1291     Br  0.06619018  0.72276801  0.33696139    -0.01500
Br1292     Br  0.05146011  0.75808050  0.29551663    -0.01600
Br1293     Br  0.01177916  0.64246801  0.24878634    -0.01600
Br1294     Br  0.50724525  0.68264650  0.20351963    -0.01600
C1295       C  0.20707842  0.55639453  0.11274787    -0.02700
C1296       C  0.19326458  0.54731938  0.08575148     0.07000
C1297       C  0.18362866  0.52231431  0.07756793    -0.02800
C1298       C  0.18979873  0.50694197  0.09500241    -0.02800
C1299       C  0.20735780  0.51724003  0.11923915     0.07100
C1300       C  0.21522590  0.54195340  0.12875527    -0.03000
Br1301     Br  0.23981342  0.55794468  0.16070799    -0.01500
Br1302     Br  0.21655624  0.58971081  0.12596280    -0.01600
Br1303     Br  0.17397950  0.97198840  0.08519878    -0.01600
Br1304     Br  0.16396002  0.50997904  0.04084009    -0.01600
C1305       C  0.31093438  0.50736505  0.08587318    -0.02700
C1306       C  0.30584726  0.51358294  0.11529052     0.07000
C1307       C  0.32535095  0.53496132  0.12991304    -0.02800
C1308       C  0.34678708  0.55198829  0.11349469    -0.02800
C1309       C  0.34986526  0.54729215  0.08302092     0.07100
C1310       C  0.33303792  0.52408843  0.07017751    -0.03000
Br1311     Br  0.33969339  0.51587239  0.03008690    -0.01500
Br1312     Br  0.28824215  0.97654596  0.06561289    -0.01600
Br1313     Br  0.37269769  0.58157702  0.13288457    -0.01600
Br1314     Br  0.32425766  0.54066901  0.17296456    -0.01600
C1315       C  0.16129794  0.95608410  0.29976507    -0.02700
C1316       C  0.14493403  0.96479976  0.28947996     0.07000
C1317       C  0.15204869  0.98066254  0.26368010    -0.02800
C1318       C  0.17265026  0.98425340  0.24581810    -0.02800
C1319       C  0.18692209  0.97296105  0.25421532     0.07100
C1320       C  0.18210997  0.96012239  0.28199640    -0.03000
Br1321     Br  0.20357504  0.94698229  0.29487446    -0.01500
Br1322     Br  0.15513710  0.93715406  0.33684710    -0.01600
Br1323     Br  0.17959318  0.50239967  0.20800712    -0.01600
Br1324     Br  0.13387646  0.49777617  0.25215498    -0.01600
C1325       C  0.30785934  0.97145672  0.29182844    -0.02700
C1326       C  0.31996785  0.95947302  0.27812062     0.07000
C1327       C  0.31631698  0.95382151  0.24660914    -0.02800
C1328       C  0.30098120  0.96018884  0.22938987    -0.02800
C1329       C  0.28724517  0.96995911  0.24367828     0.07100
C1330       C  0.29100990  0.97613320  0.27473154    -0.03000
Br1331     Br  0.27301209  0.99087844  0.29355992    -0.01500
Br1332     Br  0.31476563  0.98214973  0.33347527    -0.01600
Br1333     Br  0.29834528  0.95528545  0.18587410    -0.01600
Br1334     Br  0.32960544  0.93471450  0.22682572    -0.01600
C1335       C  0.12832686  0.89409425  0.15931156    -0.02700
C1336       C  0.14773617  0.90027312  0.13808384     0.07000
C1337       C  0.14379109  0.88392627  0.11358557    -0.02800
C1338       C  0.12257112  0.85988651  0.11344566    -0.02800
C1339       C  0.10493164  0.85251092  0.13719446     0.07100
C1340       C  0.10685843  0.87035541  0.15866620    -0.03000
Br1341     Br  0.08050175  0.86188297  0.18803035    -0.01500
Br1342     Br  0.13197926  0.91775699  0.19036074    -0.01600
Br1343     Br  0.11945034  0.83615669  0.08299339    -0.01600
Br1344     Br  0.16912712  0.89285842  0.08263522    -0.01600
C1345       C  0.32597528  0.80460467  0.11956341    -0.02700
C1346       C  0.30202838  0.79009965  0.10610726     0.07000
C1347       C  0.30046838  0.78149424  0.07599316    -0.02800
C1348       C  0.32246633  0.78691806  0.05990402    -0.02800
C1349       C  0.34623696  0.80010344  0.07389496     0.07100
C1350       C  0.34801014  0.80936874  0.10359021    -0.03000
Br1351     Br  0.38057471  0.82815795  0.12236010    -0.01500
Br1352     Br  0.32858882  0.81845545  0.15950351    -0.01600
Br1353     Br  0.32007102  0.77607857  0.01838558    -0.01600
Br1354     Br  0.26815146  0.76032710  0.05726375    -0.01600
C1355       C  0.23819155  0.69204821  0.10802238    -0.02700
C1356       C  0.21768905  0.69450408  0.11790178     0.07000
C1357       C  0.19305783  0.67581130  0.11103692    -0.02800
C1358       C  0.18888532  0.65475318  0.09385724    -0.02800
C1359       C  0.20951892  0.65294970  0.08185104     0.07100
C1360       C  0.23435388  0.67190092  0.08947447    -0.03000
Br1361     Br  0.26404234  0.67242304  0.07319162    -0.01500
Br1362     Br  0.27192666  0.71727656  0.11897218    -0.01600
Br1363     Br  0.15478389  0.62819589  0.08845641    -0.01600
Br1364     Br  0.16511323  0.67935659  0.12532930    -0.01600
C1365       C  0.28946751  0.86312100  0.26779909    -0.02700
C1366       C  0.31313983  0.86624266  0.27598802     0.07000
C1367       C  0.31976689  0.84841511  0.26665131    -0.02800
C1368       C  0.30238554  0.82691939  0.25048533    -0.02800
C1369       C  0.27893865  0.82421903  0.24058337     0.07100
C1370       C  0.27301422  0.84310409  0.24906831    -0.03000
Br1371     Br  0.24355293  0.84381957  0.23374563    -0.01500
Br1372     Br  0.27996598  0.88721837  0.28130167    -0.01600
Br1373     Br  0.31086647  0.80096334  0.24402020    -0.01600
Br1374     Br  0.35287791  0.85358081  0.27612857    -0.01600
C1375       C  0.15441318  0.71534982  0.28968456    -0.02700
C1376       C  0.14272968  0.68913303  0.28646616     0.07000
C1377       C  0.15413162  0.67904029  0.26722351    -0.02800
C1378       C  0.17466079  0.69478593  0.24856093    -0.02800
C1379       C  0.18500669  0.72074236  0.25036302     0.07100
C1380       C  0.17577796  0.73089154  0.27230390    -0.03000
Br1381     Br  0.19187124  0.76662706  0.27732012    -0.01500
Br1382     Br  0.14028159  0.73091755  0.31521205    -0.01600
Br1383     Br  0.18698197  0.68075986  0.21844190    -0.01600
Br1384     Br  0.14208262  0.64365964  0.26635497    -0.01600
C1385       C  0.24968553  0.88664113  0.12579533    -0.02700
C1386       C  0.22889673  0.88774209  0.13794193     0.07000
C1387       C  0.20626126  0.86558639  0.14338771    -0.02800
C1388       C  0.20470839  0.84261920  0.13803927    -0.02800
C1389       C  0.22631961  0.84141417  0.12991880     0.07100
C1390       C  0.24862884  0.86335304  0.12265358    -0.03000
Br1391     Br  0.27782820  0.86134457  0.11043167    -0.01500
Br1392     Br  0.27981940  0.91682153  0.11549621    -0.01600
Br1393     Br  0.17305710  0.81263452  0.14415947    -0.01600
Br1394     Br  0.17752807  0.86600530  0.16069733    -0.01600
C1395       C  0.12569028  0.73239772  0.15244964    -0.02700
C1396       C  0.14351534  0.74495801  0.12955024     0.07000
C1397       C  0.13687654  0.75493950  0.10462731    -0.02800
C1398       C  0.11469280  0.75674360  0.10577664    -0.02800
C1399       C  0.09958194  0.74889893  0.13218023     0.07100
C1400       C  0.10369844  0.73425768  0.15375524    -0.03000
Br1401     Br  0.07998206  0.71785972  0.18622537    -0.01500
Br1402     Br  0.13273849  0.71460252  0.18359833    -0.01600
Br1403     Br  0.10657147  0.77173835  0.07233710    -0.01600
Br1404     Br  0.15971526  0.76904528  0.07094382    -0.01600
Fe1405     Fe  0.21050277  0.78186569  0.68671269     1.65800
Fe1406     Fe  0.24835027  0.75711525  0.68275196     1.73200
Fe1407     Fe  0.22486556  0.76872026  0.61783305     1.54400
O1408       O  0.18590387  0.74943284  0.61851073    -0.82500
O1409       O  0.27606957  0.77086739  0.64879055    -0.80800
O1410       O  0.17976599  0.76793863  0.65829029    -0.85000
O1411       O  0.22784410  0.81494583  0.66420386    -0.79900
O1412       O  0.22414183  0.73487792  0.61427187    -0.81600
O1413       O  0.26895117  0.79089894  0.70542399    -0.84400
C1414       C  0.22763317  0.81868763  0.63595053     0.96400
C1415       C  0.17177932  0.75422167  0.63491496     1.03800
O1416       O  0.22780144  0.76894786  0.66222838    -1.13400
O1417       O  0.22273847  0.74112750  0.71958509    -0.75800
O1418       O  0.19201316  0.74968809  0.70996562    -0.79300
O1419       O  0.22483059  0.80261363  0.61596882    -0.80000
C1420       C  0.20087506  0.73831744  0.72492976     0.95300
O1421       O  0.23815138  0.79728071  0.72000227    -0.77900
O1422       O  0.22992083  0.72315368  0.66045092    -0.83100
C1423       C  0.27977136  0.78307709  0.62411335     0.97900
C1424       C  0.22454372  0.71895802  0.63232254     1.03800
O1425       O  0.26338989  0.78774208  0.61274545    -0.78800
C1426       C  0.26102210  0.80277897  0.72133795     1.02100
Fe1427     Fe  0.21512758  0.93261564  0.69491154     1.65800
Fe1428     Fe  0.24667766  0.49504549  0.68537257     1.73200
Fe1429     Fe  0.22549076  0.95685452  0.62404725     1.54400
O1430       O  0.22723798  0.92415929  0.62300042    -0.82500
O1431       O  0.22315391  0.50434478  0.66248548    -0.80800
O1432       O  0.23082163  0.91512436  0.67098458    -0.85000
O1433       O  0.18232183  0.91525538  0.66989841    -0.79900
O1434       O  0.26407454  0.97671279  0.61924627    -0.81600
O1435       O  0.22275900  0.98706703  0.72254349    -0.84400
C1436       C  0.17339114  0.91872308  0.64536354     0.96400
C1437       C  0.23011625  0.91086986  0.64279306     1.03800
O1438       O  0.22906557  0.96137974  0.66827916    -1.13400
O1439       O  0.27084879  0.48748592  0.71012988    -0.75800
O1440       O  0.24651329  0.94740055  0.72250612    -0.79300
O1441       O  0.18658340  0.93599748  0.62668378    -0.80000
C1442       C  0.26690851  0.96794013  0.72422776     0.95300
O1443       O  0.19752259  0.94615810  0.72174630    -0.77900
O1444       O  0.27337287  0.50827148  0.65030283    -0.83100
C1445       C  0.21810298  0.50243218  0.63441090     0.97900
C1446       C  0.27949403  0.49827920  0.62898682     1.03800
O1447       O  0.22240177  0.98849661  0.61710273    -0.78800
C1448       C  0.20362659  0.96748630  0.73196347     1.02100
Fe1449     Fe  0.07190131  0.78382117  0.69284511     1.65800
Fe1450     Fe  0.50809697  0.75555417  0.68774709     1.73200
Fe1451     Fe  0.04412530  0.77385618  0.62273175     1.54400
O1452       O  0.07127746  0.81148083  0.62414247    -0.82500
O1453       O  0.49316419  0.72600695  0.65760308    -0.80800
O1454       O  0.09045336  0.81643031  0.66870888    -0.85000
O1455       O  0.08675846  0.76657970  0.66695627    -0.79900
O1456       O  0.01751670  0.78518472  0.61876254    -0.81600
O1457       O  0.01570958  0.73332118  0.71624228    -0.84400
C1458       C  0.08517397  0.75977721  0.63947788     0.96400
C1459       C  0.08768870  0.82499383  0.64370249     1.03800
O1460       O  0.04132111  0.77092643  0.66770953    -1.13400
O1461       O  0.01894777  0.78326933  0.72047396    -0.75800
O1462       O  0.06063410  0.80291643  0.72079577    -0.79300
O1463       O  0.07091996  0.76224190  0.62033849    -0.80000
C1464       C  0.03997425  0.80076916  0.72961426     0.95300
O1465       O  0.05736152  0.75311365  0.72117670    -0.77900
O1466       O  0.49611471  0.77578400  0.66182790    -0.83100
C1467       C  0.49809179  0.72131437  0.63118341     0.97900
C1468       C  0.50072429  0.78535960  0.63551191     1.03800
O1469       O  0.01682128  0.73709305  0.61594179    -0.78800
C1470       C  0.03573130  0.73519463  0.72740902     1.02100
Fe1471     Fe  0.23727607  0.61071755  0.52871118     1.65800
Fe1472     Fe  0.17548543  0.58964277  0.52037587     1.73200
Fe1473     Fe  0.21276075  0.60276095  0.95786641     1.54400
O1474       O  0.24683448  0.63529644  0.96021511    -0.82500
O1475       O  0.16023786  0.55615107  0.99448647    -0.80800
O1476       O  0.25661411  0.64412338  0.50735275    -0.85000
O1477       O  0.25309136  0.59532847  0.50114847    -0.79900
O1478       O  0.19554395  0.62415381  0.95334019    -0.81600
O1479       O  0.18150746  0.57181514  0.55723746    -0.84400
C1480       C  0.24835164  0.58446073  0.97667742     0.96400
C1481       C  0.25953767  0.64951058  0.98183847     1.03800
O1482       O  0.20848028  0.60074238  0.50222400    -1.13400
O1483       O  0.18886316  0.62274533  0.54456883    -0.75800
O1484       O  0.22539283  0.62739018  0.56057637    -0.79300
O1485       O  0.23109349  0.58209025  0.95860281    -0.80000
C1486       C  0.20841918  0.63357803  0.56120766     0.95300
O1487       O  0.22039156  0.57807803  0.55142306    -0.77900
O1488       O  0.16314363  0.60453988  0.98424131    -0.83100
C1489       C  0.16289687  0.55321451  0.96637546     0.97900
C1490       C  0.17408776  0.61961356  0.96256478     1.03800
O1491       O  0.17953423  0.57017183  0.94983463    -0.78800
C1492       C  0.19906420  0.56717738  0.56381337     1.02100
Fe1493     Fe  0.37965018  0.61556662  0.52846164     1.65800
Fe1494     Fe  0.41521494  0.58725317  0.52259699     1.73200
Fe1495     Fe  0.39535855  0.60427470  0.95903500     1.54400
O1496       O  0.35719925  0.59368307  0.95840653    -0.82500
O1497       O  0.44771189  0.60960149  0.99753583    -0.80800
O1498       O  0.34678604  0.59730062  0.50439797    -0.85000
O1499       O  0.39225075  0.64764129  0.50304246    -0.79900
O1500       O  0.38477729  0.56707242  0.95357610    -0.81600
O1501       O  0.43138067  0.61444694  0.55660715    -0.84400
C1502       C  0.40335924  0.65609328  0.97819908     0.96400
C1503       C  0.34105449  0.59087131  0.97843415     1.03800
O1504       O  0.39662863  0.60219804  0.50297553    -1.13400
O1505       O  0.38517393  0.56406200  0.54997137    -0.75800
O1506       O  0.36495540  0.58536054  0.55781176    -0.79300
O1507       O  0.40658562  0.64230833  0.95927731    -0.80000
C1508       C  0.36775188  0.56652019  0.56231103     0.95300
O1509       O  0.41074716  0.63556477  0.55474927    -0.77900
O1510       O  0.40289357  0.55876608  0.99247747    -0.83100
C1511       C  0.45073394  0.61572068  0.96968085     0.97900
C1512       C  0.39081048  0.55266489  0.96738844     1.03800
O1513       O  0.43265444  0.61364879  0.95324296    -0.78800
C1514       C  0.42856676  0.63269716  0.56475769     1.02100
Fe1515     Fe  0.38764910  0.76697791  0.52923005     1.65800
Fe1516     Fe  0.41527790  0.82885325  0.51687899     1.73200
Fe1517     Fe  0.39665974  0.78858881  0.95801334     1.54400
O1518       O  0.41507574  0.76774645  0.95996945    -0.82500
O1519       O  0.40026781  0.84077540  0.98169392    -0.80800
O1520       O  0.40275967  0.74929181  0.50394190    -0.85000
O1521       O  0.35404584  0.74795488  0.50742011    -0.79900
O1522       O  0.43078191  0.82037716  0.94895010    -0.81600
O1523       O  0.38337437  0.82046831  0.54224979    -0.84400
C1524       C  0.34856727  0.74267037  0.98186740     0.96400
C1525       C  0.41235586  0.75125719  0.97934558     1.03800
O1526       O  0.40028178  0.79480196  0.50105814    -1.13400
O1527       O  0.43311644  0.82274240  0.55410073    -0.75800
O1528       O  0.41979028  0.78217984  0.55404605    -0.79300
O1529       O  0.36271651  0.75557288  0.96032808    -0.80000
C1530       C  0.43417703  0.80384137  0.56373069     0.95300
O1531       O  0.37059655  0.78146652  0.55726241    -0.77900
O1532       O  0.44700878  0.83844722  0.99326894    -0.83100
C1533       C  0.38402965  0.83025839  0.96069939     0.97900
C1534       C  0.44921509  0.83584116  0.96502900     1.03800
O1535       O  0.37721990  0.80808093  0.95266328    -0.78800
C1536       C  0.36874665  0.80112881  0.55735403     1.02100
Fe1537     Fe  0.40470344  0.94850738  0.85877020     1.65800
Fe1538     Fe  0.34095154  0.92200423  0.85042837     1.73200
Fe1539     Fe  0.37983949  0.94035766  0.78757704     1.54400
O1540       O  0.40896084  0.97706519  0.78978294    -0.82500
O1541       O  0.32631674  0.89211757  0.82042889    -0.80800
O1542       O  0.42366557  0.98219870  0.83700889    -0.85000
O1543       O  0.42145922  0.93340223  0.83217876    -0.79900
O1544       O  0.35595915  0.95431982  0.78273134    -0.81600
O1545       O  0.34765227  0.89990121  0.88096806    -0.84400
C1546       C  0.41970125  0.92587021  0.80502967     0.96400
C1547       C  0.42363688  0.99061759  0.81072939     1.03800
O1548       O  0.37504895  0.93684143  0.83219117    -1.13400
O1549       O  0.35141705  0.95061336  0.88282608    -0.75800
O1550       O  0.39223794  0.96555308  0.88871127    -0.79300
O1551       O  0.40445696  0.92653888  0.78604330    -0.80000
C1552       C  0.37211416  0.96537093  0.89595273     0.95300
O1553       O  0.38925494  0.91618540  0.88378896    -0.77900
O1554       O  0.32878910  0.94062438  0.82115587    -0.83100
C1555       C  0.33153707  0.88859788  0.79352265     0.97900
C1556       C  0.33603806  0.95110902  0.79537449     1.03800
O1557       O  0.35085891  0.90451750  0.77925317    -0.78800
C1558       C  0.36715779  0.89960629  0.89065434     1.02100
Fe1559     Fe  0.04654531  0.95182659  0.85662595     1.65800
Fe1560     Fe  0.08133389  0.92275507  0.85434467     1.73200
Fe1561     Fe  0.06472843  0.94064202  0.78792572     1.54400
O1562       O  0.02700382  0.93118164  0.78443670    -0.82500
O1563       O  0.11410631  0.94312579  0.82993252    -0.80800
O1564       O  0.01474910  0.93364144  0.83124385    -0.85000
O1565       O  0.06019477  0.98358292  0.83081683    -0.79900
O1566       O  0.05360441  0.90359949  0.78250907    -0.81600
O1567       O  0.09676906  0.95001489  0.88802553    -0.84400
C1568       C  0.07298628  0.99202678  0.80676732     0.96400
C1569       C  0.01006679  0.92791814  0.80349881     1.03800
O1570       O  0.06417265  0.93830634  0.83291652    -1.13400
O1571       O  0.05085516  0.90051718  0.88133403    -0.75800
O1572       O  0.03073853  0.92210838  0.88618299    -0.79300
O1573       O  0.07700515  0.97852142  0.78844726    -0.80000
C1574       C  0.03347646  0.90354015  0.89258101     0.95300
O1575       O  0.07665891  0.97154937  0.88415139    -0.77900
O1576       O  0.06756162  0.89348235  0.82370601    -0.83100
C1577       C  0.11874591  0.95055090  0.80262181     0.97900
C1578       C  0.05699636  0.88806824  0.79777535     1.03800
O1579       O  0.10187989  0.94949377  0.78481319    -0.78800
C1580       C  0.09383308  0.96831888  0.89550334     1.02100
Fe1581     Fe  0.05521836  0.59981219  0.86397963     1.65800
Fe1582     Fe  0.08213865  0.66266130  0.85503456     1.73200
Fe1583     Fe  0.06572104  0.62469055  0.79226661     1.54400
O1584       O  0.07776118  0.59853159  0.79266626    -0.82500
O1585       O  0.06131451  0.67261101  0.82694440    -0.80800
O1586       O  0.07228217  0.58391611  0.83974800    -0.85000
O1587       O  0.02249525  0.58032753  0.83965230    -0.79900
O1588       O  0.10274057  0.65187876  0.78572087    -0.81600
O1589       O  0.05357525  0.65231226  0.88699664    -0.84400
C1590       C  0.01434079  0.58135595  0.81345409     0.96400
C1591       C  0.07917764  0.58437592  0.81253869     1.03800
O1592       O  0.06774872  0.62906736  0.83705074    -1.13400
O1593       O  0.10511418  0.65690924  0.88484030    -0.75800
O1594       O  0.08677039  0.61583665  0.89130010    -0.79300
O1595       O  0.02801822  0.59712187  0.79352014    -0.80000
C1596       C  0.10448062  0.63773356  0.89624055     0.95300
O1597       O  0.03576780  0.61127582  0.89155801    -0.77900
O1598       O  0.11235999  0.67744488  0.82528539    -0.83100
C1599       C  0.05279416  0.66736104  0.80006731     0.97900
C1600       C  0.11784540  0.67159685  0.79984887     1.03800
O1601       O  0.05396369  0.65047171  0.78499782    -0.78800
C1602       C  0.03696084  0.63177486  0.89812654     1.02100
C1603       C  0.09788176  0.53565157  0.82451990    -0.02700
C1604       C  0.08371962  0.51897774  0.80122871     0.07000
C1605       C  0.07628255  0.52787520  0.77602835    -0.02800
C1606       C  0.07827951  0.55163720  0.77726876    -0.02800
C1607       C  0.08734388  0.56609868  0.80408545     0.07100
C1608       C  0.09965514  0.55915929  0.82606765    -0.03000
Br1609     Br  0.11821601  0.58134697  0.85897974    -0.01500
Br1610     Br  0.11437334  0.52594070  0.85465684    -0.01600
Br1611     Br  0.06709869  0.56312291  0.74297407    -0.01600
Br1612     Br  0.06199313  0.00703320  0.74087237    -0.01600
C1613       C  0.45803775  0.52501029  0.77953182    -0.02700
C1614       C  0.44211853  0.51730075  0.80519831     0.07000
C1615       C  0.44665652  0.53474767  0.82845737    -0.02800
C1616       C  0.46935656  0.55739861  0.82914899    -0.02800
C1617       C  0.48778201  0.56269404  0.80671157     0.07100
C1618       C  0.48117647  0.54748139  0.78055312    -0.03000
Br1619     Br  0.00430288  0.55607796  0.74712481    -0.01500
Br1620     Br  0.44877179  0.00499912  0.74325280    -0.01600
Br1621     Br  0.47530480  0.58109550  0.86112174    -0.01600
Br1622     Br  0.42155860  0.52770205  0.85927041    -0.01600
C1623       C  0.45415769  0.92931027  0.77116046    -0.02700
C1624       C  0.43741816  0.91738327  0.79543736     0.07000
C1625       C  0.44154974  0.90154136  0.81473184    -0.02800
C1626       C  0.46453296  0.90159937  0.81360359    -0.02800
C1627       C  0.48366124  0.91818607  0.79395637     0.07100
C1628       C  0.47757259  0.93002966  0.77065857    -0.03000
Br1629     Br  0.00201782  0.94958205  0.74028955    -0.01500
Br1630     Br  0.44643401  0.94674438  0.74038387    -0.01600
Br1631     Br  0.47066695  0.88044084  0.84056396    -0.01600
Br1632     Br  0.41634998  0.88104000  0.84394374    -0.01600
C1633       C  0.35960452  0.85621815  0.89755658    -0.02700
C1634       C  0.36467568  0.87903905  0.91042768     0.07000
C1635       C  0.37097573  0.88341944  0.94135727    -0.02800
C1636       C  0.37482804  0.86625926  0.95859766    -0.02800
C1637       C  0.37386736  0.84504913  0.94444982     0.07100
C1638       C  0.36472998  0.83949399  0.91398257    -0.03000
Br1639     Br  0.36023786  0.81006968  0.89297931    -0.01500
Br1640     Br  0.34599012  0.84830860  0.85695583    -0.01600
Br1641     Br  0.38026271  0.87189418  0.00185044    -0.01600
Br1642     Br  0.37391725  0.91306480  0.95992741    -0.01600
C1643       C  0.98896182  0.87709941  0.95884463    -0.02700
C1644       C  0.47370055  0.85200108  0.94974736     0.07000
C1645       C  0.48132674  0.84296831  0.92455152    -0.02800
C1646       C  0.50171887  0.85950208  0.90635012    -0.02800
C1647       C  0.01536413  0.88493122  0.91406420     0.07100
C1648       C  0.01006556  0.89311665  0.94150020    -0.03000
Br1649     Br  0.03247762  0.92627866  0.95598696    -0.01500
Br1650     Br  0.98067824  0.89091645  0.99355514    -0.01600
Br1651     Br  0.50997838  0.84736424  0.87009855    -0.01600
Br1652     Br  0.46463788  0.80784068  0.91517492    -0.01600
C1653       C  0.48239033  0.63890410  0.92820636    -0.02700
C1654       C  0.47576899  0.62411172  0.95491945     0.07000
C1655       C  0.49179553  0.61483190  0.96482963    -0.02800
C1656       C  0.01226948  0.61816727  0.94673738    -0.02800
C1657       C  0.01750531  0.63119066  0.91894408     0.07100
C1658       C  0.00255149  0.64168589  0.90991359    -0.03000
Br1659     Br  0.00738045  0.65708291  0.87043256    -0.01500
Br1660     Br  0.46467576  0.65644156  0.91660249    -0.01600
Br1661     Br  0.03256136  0.60376878  0.95975835    -0.01600
Br1662     Br  0.48608476  0.59662542  0.00254289    -0.01600
C1663       C  0.35517372  0.99109613  0.92335959    -0.02700
C1664       C  0.37410274  0.98427685  0.91948893     0.07000
C1665       C  0.39659569  0.49757672  0.93684013    -0.02800
C1666       C  0.40203838  0.51979641  0.95207617    -0.02800
C1667       C  0.38422258  0.52811760  0.95299948     0.07100
C1668       C  0.36035856  0.51301813  0.93952195    -0.03000
Br1669     Br  0.33431628  0.52204889  0.94358028    -0.01500
Br1670     Br  0.32127509  0.96974847  0.90935745    -0.01600
Br1671     Br  0.43525439  0.53979724  0.96914768    -0.01600
Br1672     Br  0.41962679  0.48474385  0.94281725    -0.01600
C1673       C  0.40607871  0.71492859  0.94732639    -0.02700
C1674       C  0.41869074  0.73148887  0.97159786     0.07000
C1675       C  0.43162382  0.72498673  0.99311714    -0.02800
C1676       C  0.42882860  0.70091665  0.99307644    -0.02800
C1677       C  0.41279599  0.68297543  0.97176575     0.07100
C1678       C  0.40293292  0.69062363  0.94759973    -0.03000
Br1679     Br  0.38306205  0.66720223  0.91653981    -0.01500
Br1680     Br  0.39065841  0.72437406  0.91545582    -0.01600
Br1681     Br  0.44655936  0.69229749  0.02276956     0.01100
Br1682     Br  0.45228535  0.74889735  0.02354177    -0.01600
C1683       C  0.14151048  0.63351465  0.96243680    -0.02700
C1684       C  0.16046878  0.63101421  0.94681401     0.07000
C1685       C  0.16423793  0.63720806  0.91539063    -0.02800
C1686       C  0.14708214  0.64215283  0.89952604    -0.02800
C1687       C  0.12597186  0.64040776  0.91445030     0.07100
C1688       C  0.12410713  0.63773034  0.94611717    -0.03000
Br1689     Br  0.09779322  0.64018232  0.96701215    -0.01500
Br1690     Br  0.13930565  0.63192566  0.00626912    -0.01600
Br1691     Br  0.15165453  0.65029536  0.85679518    -0.01600
Br1692     Br  0.19150806  0.63767738  0.89259330    -0.01600
C1693       C  0.13734272  0.99531199  0.91732656    -0.02700
C1694       C  0.11127559  0.98748275  0.91739535     0.07000
C1695       C  0.10240845  0.00049672  0.93581717    -0.02800
C1696       C  0.11936325  0.52167397  0.95221406    -0.02800
C1697       C  0.14519459  0.52958185  0.95159212     0.07100
C1698       C  0.15412124  0.51613291  0.93464973    -0.03000
Br1699     Br  0.18958666  0.52655760  0.93462156    -0.01500
Br1700     Br  0.15105676  0.97947862  0.89162781    -0.01600
Br1701     Br  0.10739471  0.54153206  0.97294772    -0.01600
Br1702     Br  0.06704973  0.99033831  0.93882034    -0.01600
C1703       C  0.30647925  0.67346697  0.48152963    -0.02700
C1704       C  0.28266284  0.67238663  0.97515141     0.07000
C1705       C  0.28240631  0.69311493  0.96219455    -0.02800
C1706       C  0.30467561  0.71629023  0.96189605    -0.02800
C1707       C  0.32658406  0.71847597  0.97553875     0.07100
C1708       C  0.32817176  0.69659383  0.48306473    -0.03000
Br1709     Br  0.35767681  0.69836830  0.50150140    -0.01500
Br1710     Br  0.30762039  0.64390136  0.49390222    -0.01600
Br1711     Br  0.30476689  0.74501370  0.94464014    -0.01600
Br1712     Br  0.25138306  0.68992195  0.94677844    -0.01600
C1713       C  0.27156914  0.56260115  0.99107696    -0.02700
C1714       C  0.26573462  0.57519508  0.96863141     0.07000
C1715       C  0.28191063  0.58550304  0.94357511    -0.02800
C1716       C  0.30620591  0.58811467  0.94450121    -0.02800
C1717       C  0.31397662  0.58010568  0.97047447     0.07100
C1718       C  0.29563743  0.56500495  0.99202339    -0.03000
Br1719     Br  0.30360441  0.54854198  0.02387645    -0.01500
Br1720     Br  0.24704627  0.54377325  0.02190850    -0.01600
Br1721     Br  0.32906035  0.60474135  0.91154272    -0.01600
Br1722     Br  0.27181055  0.59836301  0.90961793    -0.01600
C1723       C  0.49477364  0.81392601  0.59917818    -0.02700
C1724       C  0.48513977  0.79595531  0.62283884     0.07000
C1725       C  0.45960009  0.78627766  0.63149208    -0.02800
C1726       C  0.44342025  0.79121261  0.61353403    -0.02800
C1727       C  0.45245058  0.80604936  0.58728239     0.07100
C1728       C  0.47835331  0.81848186  0.58106488    -0.03000
Br1729     Br  0.49095122  0.83969542  0.54582003    -0.01500
Br1730     Br  0.03050088  0.83295509  0.59150378    -0.01600
Br1731     Br  0.40811513  0.77628302  0.62365326    -0.01600
Br1732     Br  0.44544680  0.76523195  0.66674065    -0.01600
C1733       C  0.48980967  0.68368802  0.59961558    -0.02700
C1734       C  0.48061571  0.69670069  0.61720419     0.07000
C1735       C  0.45433279  0.68641946  0.62058519    -0.02800
C1736       C  0.43763360  0.66388256  0.60623278    -0.02800
C1737       C  0.44667410  0.65223361  0.58601895     0.07100
C1738       C  0.47299000  0.66196867  0.58344489    -0.03000
Br1739     Br  0.48656248  0.64700047  0.55627275    -0.01500
Br1740     Br  0.02550487  0.69524003  0.59790658    -0.01600
Br1741     Br  0.40206170  0.64904996  0.61487014    -0.01600
Br1742     Br  0.44039727  0.70411386  0.64226726    -0.01600
C1743       C  0.02587202  0.83133795  0.74519737    -0.02700
C1744       C  0.04103164  0.82024276  0.75051765     0.07000
C1745       C  0.05935207  0.82986392  0.77386381    -0.02800
C1746       C  0.06273664  0.85035228  0.79136285    -0.02800
C1747       C  0.04940216  0.86313291  0.78403801     0.07100
C1748       C  0.03021456  0.85280239  0.76148401    -0.03000
Br1749     Br  0.50918654  0.86745371  0.75231665    -0.01500
Br1750     Br  0.50063935  0.81897094  0.71339107    -0.01600
Br1751     Br  0.08656804  0.86049176  0.82473712    -0.01600
Br1752     Br  0.08129397  0.81608324  0.78148402    -0.01600
C1753       C  0.04323299  0.72226519  0.77839666    -0.02700
C1754       C  0.03425450  0.71579219  0.74852336     0.07000
C1755       C  0.02568738  0.69133231  0.73843862    -0.02800
C1756       C  0.02927660  0.67448553  0.75669020    -0.02800
C1757       C  0.04258303  0.68243780  0.78481337     0.07100
C1758       C  0.04782574  0.70605558  0.79646939    -0.03000
Br1759     Br  0.06172505  0.71764637  0.83665581    -0.01500
Br1760     Br  0.04788992  0.75308529  0.79499057    -0.01600
Br1761     Br  0.01470451  0.64041674  0.74285565    -0.01600
Br1762     Br  0.50973506  0.68121520  0.69907995    -0.01600
C1763       C  0.20949051  0.55757462  0.61412177    -0.02700
C1764       C  0.19564611  0.54887383  0.58705794     0.07000
C1765       C  0.18520074  0.52378851  0.57879883    -0.02800
C1766       C  0.19041942  0.50782395  0.59633286    -0.02800
C1767       C  0.20770913  0.51749624  0.62086636     0.07100
C1768       C  0.21640589  0.54232098  0.63050313    -0.03000
Br1769     Br  0.24043978  0.55715868  0.66325736    -0.01500
Br1770     Br  0.22066936  0.59134329  0.62699409    -0.01600
Br1771     Br  0.17391610  0.97289242  0.58601380    -0.01600
Br1772     Br  0.16604070  0.51210942  0.54161705    -0.01600
C1773       C  0.31014541  0.50643591  0.58497475    -0.02700
C1774       C  0.30500176  0.51287047  0.61424982     0.07000
C1775       C  0.32449260  0.53435352  0.62873889    -0.02800
C1776       C  0.34596423  0.55122305  0.61226583    -0.02800
C1777       C  0.34901669  0.54635286  0.58187014     0.07100
C1778       C  0.33231734  0.52300271  0.56930204    -0.03000
Br1779     Br  0.33940989  0.51420869  0.52979954    -0.01500
Br1780     Br  0.28741418  0.97557283  0.56474439    -0.01600
Br1781     Br  0.37216221  0.58066738  0.63156047    -0.01600
Br1782     Br  0.32336515  0.54050736  0.67165257    -0.01600
C1783       C  0.15847160  0.94771795  0.79751746    -0.02700
C1784       C  0.14445011  0.95973194  0.79010731     0.07000
C1785       C  0.15382932  0.97858814  0.76761644    -0.02800
C1786       C  0.17464226  0.98270016  0.74978846    -0.02800
C1787       C  0.18693529  0.96883034  0.75523605     0.07100
C1788       C  0.17983402  0.95260841  0.78036428    -0.03000
Br1789     Br  0.19905866  0.93632695  0.79057205    -0.01500
Br1790     Br  0.14772941  0.92273004  0.82901580    -0.01600
Br1791     Br  0.18445627  0.50543830  0.71590297    -0.01600
Br1792     Br  0.13825504  0.49893386  0.76079569    -0.01600
C1793       C  0.30705282  0.96947948  0.79049919    -0.02700
C1794       C  0.31981808  0.95796873  0.77725700     0.07000
C1795       C  0.31639258  0.95194195  0.74580713    -0.02800
C1796       C  0.30114290  0.95806018  0.72805542    -0.02800
C1797       C  0.28731523  0.96796737  0.74176664     0.07100
C1798       C  0.29036942  0.97394699  0.77284373    -0.03000
Br1799     Br  0.27113108  0.98765240  0.79104251    -0.01500
Br1800     Br  0.31230346  0.97937277  0.83243832    -0.01600
Br1801     Br  0.29850327  0.95231211  0.68469698    -0.01600
Br1802     Br  0.32955361  0.93235199  0.72691002    -0.01600
C1803       C  0.12882482  0.89313451  0.66127095    -0.02700
C1804       C  0.14699516  0.90011615  0.63820191     0.07000
C1805       C  0.14170711  0.88457880  0.61252352    -0.02800
C1806       C  0.12070307  0.86036021  0.61268833    -0.02800
C1807       C  0.10464049  0.85198821  0.63813793     0.07100
C1808       C  0.10759323  0.86924613  0.66108257    -0.03000
Br1809     Br  0.08297831  0.85999981  0.69292066    -0.01500
Br1810     Br  0.13408226  0.91585026  0.69428740    -0.01600
Br1811     Br  0.11592310  0.83790484  0.57980567    -0.01600
Br1812     Br  0.16511120  0.89491000  0.57914219    -0.01600
C1813       C  0.32728722  0.80444246  0.61987209    -0.02700
C1814       C  0.30322224  0.79049865  0.60649301     0.07000
C1815       C  0.30138668  0.78258926  0.57595281    -0.02800
C1816       C  0.32316270  0.78758302  0.55964317    -0.02800
C1817       C  0.34698002  0.80007584  0.57359889     0.07100
C1818       C  0.34912101  0.80923604  0.60341369    -0.03000
Br1819     Br  0.38195809  0.82831953  0.62143385    -0.01500
Br1820     Br  0.33037719  0.81762462  0.66029747    -0.01600
Br1821     Br  0.32047428  0.77730155  0.51776922    -0.01600
Br1822     Br  0.26895915  0.76318773  0.55662992    -0.01600
C1823       C  0.24082874  0.69419605  0.60654234    -0.02700
C1824       C  0.22024503  0.69532481  0.61884773     0.07000
C1825       C  0.19574913  0.67553170  0.61418382    -0.02800
C1826       C  0.19175653  0.65479481  0.59648686    -0.02800
C1827       C  0.21228606  0.65447372  0.58181791     0.07100
C1828       C  0.23698309  0.67454245  0.58715033    -0.03000
Br1829     Br  0.26606732  0.67734651  0.56614945    -0.01500
Br1830     Br  0.27456472  0.72013933  0.61604162    -0.01600
Br1831     Br  0.15819380  0.62676348  0.59370255    -0.01600
Br1832     Br  0.16779592  0.67715690  0.63214139    -0.01600
C1833       C  0.28936243  0.86252379  0.76980175    -0.02700
C1834       C  0.31324246  0.86574428  0.77709967     0.07000
C1835       C  0.31977846  0.84798745  0.76722054    -0.02800
C1836       C  0.30223181  0.82660028  0.75109109    -0.02800
C1837       C  0.27867972  0.82395680  0.74172349     0.07100
C1838       C  0.27251321  0.84241011  0.75147144    -0.03000
Br1839     Br  0.24179794  0.84210028  0.73922828    -0.01500
Br1840     Br  0.28022865  0.88683203  0.78360952    -0.01600
Br1841     Br  0.31054372  0.80053401  0.74434451    -0.01600
Br1842     Br  0.35301332  0.85308295  0.77578753    -0.01600
C1843       C  0.15096177  0.71502919  0.78550041    -0.02700
C1844       C  0.14231910  0.68912554  0.78522440     0.07000
C1845       C  0.15620221  0.68014980  0.76879587    -0.02800
C1846       C  0.17673689  0.69641560  0.75043024    -0.02800
C1847       C  0.18441269  0.72197637  0.74956605     0.07100
C1848       C  0.17234866  0.73132429  0.76865210    -0.03000
Br1849     Br  0.18467562  0.76681462  0.77095967    -0.01500
Br1850     Br  0.13219302  0.72857709  0.80575599    -0.01600
Br1851     Br  0.19276598  0.68327405  0.72438143    -0.01600
Br1852     Br  0.14730305  0.64555452  0.77124695    -0.01600
C1853       C  0.25035464  0.88668941  0.62261338    -0.02700
C1854       C  0.22907699  0.88753874  0.63344640     0.07000
C1855       C  0.20643818  0.86528040  0.63822473    -0.02800
C1856       C  0.20538126  0.84243482  0.63396096    -0.02800
C1857       C  0.22738391  0.84150180  0.62733932     0.07100
C1858       C  0.24971415  0.86354094  0.62039993    -0.03000
Br1859     Br  0.27947662  0.86190871  0.61001419    -0.01500
Br1860     Br  0.28042803  0.91702219  0.61260413    -0.01600
Br1861     Br  0.17386837  0.81236817  0.63999271    -0.01600
Br1862     Br  0.17706800  0.86540790  0.65370246    -0.01600
C1863       C  0.12697318  0.73174633  0.64942943    -0.02700
C1864       C  0.14511442  0.74487739  0.62705599     0.07000
C1865       C  0.13895905  0.75577000  0.60271600    -0.02800
C1866       C  0.11711637  0.75814057  0.60431572    -0.02800
C1867       C  0.10146502  0.74924759  0.63021032     0.07100
C1868       C  0.10500786  0.73365462  0.65080590    -0.03000
Br1869     Br  0.08039849  0.71588910  0.68190580    -0.01500
Br1870     Br  0.13360204  0.71320142  0.67992280    -0.01600
Br1871     Br  0.11052706  0.77574802  0.57263129    -0.01600
Br1872     Br  0.16222643  0.77044555  0.56951082    -0.01600
Fe1873     Fe  0.70971410  0.28105360  0.18827008     1.65800
Fe1874     Fe  0.74768931  0.25646760  0.18234463     1.73200
Fe1875     Fe  0.72326400  0.26842751  0.11828817     1.54400
O1876       O  0.68428773  0.24990269  0.11949221    -0.82500
O1877       O  0.77509303  0.27055808  0.14834358    -0.80800
O1878       O  0.67844946  0.26707408  0.16079767    -0.85000
O1879       O  0.72630403  0.31411348  0.16589098    -0.79900
O1880       O  0.72146327  0.23412294  0.11406063    -0.81600
O1881       O  0.76852180  0.29023505  0.20529650    -0.84400
C1882       C  0.72646425  0.31838526  0.13775419     0.96400
C1883       C  0.67028599  0.25413767  0.13684889     1.03800
O1884       O  0.72677080  0.26836303  0.16272456    -1.13400
O1885       O  0.72255382  0.23993052  0.21932650    -0.75800
O1886       O  0.69184676  0.24893312  0.21178758    -0.79300
O1887       O  0.72408210  0.30278082  0.11729528    -0.80000
C1888       C  0.70089206  0.23720534  0.22561150     0.95300
O1889       O  0.73797957  0.29674010  0.22074604    -0.77900
O1890       O  0.72916902  0.22269212  0.15946516    -0.83100
C1891       C  0.77845942  0.28244337  0.12353340     0.97900
C1892       C  0.72257155  0.21829924  0.13163612     1.03800
O1893       O  0.76177984  0.28663720  0.11203598    -0.78800
C1894       C  0.76092069  0.30243473  0.22118025     1.02100
Fe1895     Fe  0.71469389  0.43441675  0.19712069     1.65800
Fe1896     Fe  0.74703987  0.99668211  0.18552234     1.73200
Fe1897     Fe  0.72626639  0.45726567  0.12519231     1.54400
O1898       O  0.72860964  0.42490045  0.12598521    -0.82500
O1899       O  0.72394827  0.00570283  0.16120751    -0.80800
O1900       O  0.72970666  0.41561376  0.17460302    -0.85000
O1901       O  0.68193974  0.41674628  0.17184090    -0.79900
O1902       O  0.76489077  0.47744806  0.12042495    -0.81600
O1903       O  0.72280201  0.48985681  0.22193438    -0.84400
C1904       C  0.67373514  0.41931215  0.14622692     0.96400
C1905       C  0.73012982  0.41133729  0.14655181     1.03800
O1906       O  0.72932362  0.46263981  0.16941246    -1.13400
O1907       O  0.77073974  0.98933197  0.21172178    -0.75800
O1908       O  0.74612387  0.44949104  0.22495336    -0.79300
O1909       O  0.68741079  0.43594847  0.12712754    -0.80000
C1910       C  0.76664273  0.46998852  0.22643259     0.95300
O1911       O  0.69736929  0.44897733  0.22285263    -0.77900
O1912       O  0.77417046  0.00919878  0.15105897    -0.83100
C1913       C  0.71834240  0.00280166  0.13326871     0.97900
C1914       C  0.78029840  0.99905472  0.12997212     1.03800
O1915       O  0.72243324  0.48836317  0.11663614    -0.78800
C1916       C  0.70357669  0.47064854  0.23183904     1.02100
Fe1917     Fe  0.57152293  0.28540750  0.19340427     1.65800
Fe1918     Fe  0.00776560  0.25767528  0.18951282     1.73200
Fe1919     Fe  0.54319557  0.27494944  0.12388527     1.54400
O1920       O  0.57051347  0.31244227  0.12436096    -0.82500
O1921       O  0.99180167  0.22801822  0.15913652    -0.80800
O1922       O  0.59060182  0.31732796  0.16821001    -0.85000
O1923       O  0.58530193  0.26691374  0.16839407    -0.79900
O1924       O  0.51664099  0.28653183  0.12020138    -0.81600
O1925       O  0.51521567  0.23510127  0.21755852    -0.84400
C1926       C  0.58365723  0.25998627  0.14099645     0.96400
C1927       C  0.58756201  0.32579659  0.14331352     1.03800
O1928       O  0.54075267  0.27249754  0.16885155    -1.13400
O1929       O  0.51956424  0.28534060  0.22280049    -0.75800
O1930       O  0.56103962  0.30554240  0.22006028    -0.79300
O1931       O  0.56983122  0.26297540  0.12164638    -0.80000
C1932       C  0.54084318  0.30325299  0.23062040     0.95300
O1933       O  0.55680288  0.25560825  0.22307806    -0.77900
O1934       O  0.99635039  0.27861852  0.16411863    -0.83100
C1935       C  0.99693114  0.22283488  0.13303555     0.97900
C1936       C  0.00050199  0.28754682  0.13745394     1.03800
O1937       O  0.51588162  0.23825397  0.11786756    -0.78800
C1938       C  0.53528459  0.23753455  0.22932615     1.02100
Fe1939     Fe  0.73534388  0.10987056  0.02936566     1.65800
Fe1940     Fe  0.67401119  0.08883644  0.01879123     1.73200
Fe1941     Fe  0.71263021  0.10233648  0.45796757     1.54400
O1942       O  0.74680668  0.13496141  0.45842224    -0.82500
O1943       O  0.66064740  0.05655574  0.49686893    -0.80800
O1944       O  0.75451173  0.14399988  0.00960727    -0.85000
O1945       O  0.75260370  0.09596445  0.00173432    -0.79900
O1946       O  0.69502129  0.12349489  0.45355507    -0.81600
O1947       O  0.67939701  0.07055641  0.05581130    -0.84400
C1948       C  0.74835839  0.08374905  0.47609868     0.96400
C1949       C  0.76063584  0.14923915  0.47937893     1.03800
O1950       O  0.70736122  0.10029469  0.00184375    -1.13400
O1951       O  0.68672934  0.12172372  0.04350008    -0.75800
O1952       O  0.72201165  0.12494254  0.06169496    -0.79300
O1953       O  0.73106483  0.08171051  0.45828342    -0.80000
C1954       C  0.70563767  0.13191640  0.06125875     0.95300
O1955       O  0.71813967  0.07639146  0.05013164    -0.77900
O1956       O  0.66384820  0.10484112  0.48615602    -0.83100
C1957       C  0.66272787  0.05314634  0.46877648     0.97900
C1958       C  0.67390619  0.11929081  0.46374321     1.03800
O1959       O  0.67928501  0.06958982  0.45166577    -0.78800
C1960       C  0.69672631  0.06553456  0.06232718     1.02100
Fe1961     Fe  0.88012433  0.11621065  0.02932817     1.65800
Fe1962     Fe  0.91607693  0.08825622  0.02356668     1.73200
Fe1963     Fe  0.89529118  0.10419627  0.45809819     1.54400
O1964       O  0.85711330  0.09348612  0.45711012    -0.82500
O1965       O  0.94694881  0.10871386  0.49714190    -0.80800
O1966       O  0.84712367  0.09768051  0.00571715    -0.85000
O1967       O  0.89236028  0.14796217  0.00344600    -0.79900
O1968       O  0.88471730  0.06704380  0.45208834    -0.81600
O1969       O  0.93221214  0.11580868  0.05748725    -0.84400
C1970       C  0.90338394  0.15591112  0.47790929     0.96400
C1971       C  0.84086461  0.09053770  0.47705797     1.03800
O1972       O  0.89712977  0.10279582  0.00391536    -1.13400
O1973       O  0.88614563  0.06514118  0.05125556    -0.75800
O1974       O  0.86574405  0.08628135  0.05902416    -0.79300
O1975       O  0.90650154  0.14217299  0.45883221    -0.80000
C1976       C  0.86865867  0.06752552  0.06358249     0.95300
O1977       O  0.91121671  0.13654033  0.05538523    -0.77900
O1978       O  0.90211944  0.05811674  0.49127134    -0.83100
C1979       C  0.95050384  0.11569197  0.46963830     0.97900
C1980       C  0.89036664  0.05240078  0.46599124     1.03800
O1981       O  0.93275227  0.11394665  0.45280227    -0.78800
C1982       C  0.92905287  0.13387133  0.06571603     1.02100
Fe1983     Fe  0.88763325  0.26748857  0.03061183     1.65800
Fe1984     Fe  0.91465601  0.32899626  0.01736477     1.73200
Fe1985     Fe  0.89784084  0.28884998  0.45691351     1.54400
O1986       O  0.91642470  0.26814952  0.45912872    -0.82500
O1987       O  0.90026665  0.34049129  0.48168951    -0.80800
O1988       O  0.90234684  0.24947318  0.00520359    -0.85000
O1989       O  0.85374050  0.24831847  0.00951380    -0.79900
O1990       O  0.93190882  0.32085906  0.44818711    -0.81600
O1991       O  0.88248769  0.32069015  0.04220762    -0.84400
C1992       C  0.84951278  0.24233774  0.47965110     0.96400
C1993       C  0.91327740  0.25139113  0.47833475     1.03800
O1994       O  0.89963170  0.29488522  0.00201134    -1.13400
O1995       O  0.93220697  0.32331015  0.05518148    -0.75800
O1996       O  0.92026405  0.28307937  0.05462258    -0.79300
O1997       O  0.86401984  0.25553353  0.45851431    -0.80000
C1998       C  0.93401507  0.30478060  0.06461564     0.95300
O1999       O  0.87095158  0.28231790  0.05882358    -0.77900
O2000       O  0.94773973  0.33918855  0.49250026    -0.83100
C2001       C  0.88435850  0.33014827  0.46028970     0.97900
C2002       C  0.95006447  0.33674552  0.46425712     1.03800
O2003       O  0.87830698  0.30830894  0.45143441    -0.78800
C2004       C  0.86833378  0.30155112  0.05796750     1.02100
Fe2005     Fe  0.90420922  0.44821485  0.35864186     1.65800
Fe2006     Fe  0.84047798  0.42179975  0.35012552     1.73200
Fe2007     Fe  0.87956126  0.44114271  0.28749400     1.54400
O2008       O  0.90905947  0.47774502  0.29045203    -0.82500
O2009       O  0.82608378  0.39201653  0.31991966    -0.80800
O2010       O  0.92328615  0.48232187  0.33782318    -0.85000
O2011       O  0.92103090  0.43360427  0.33148750    -0.79900
O2012       O  0.85610349  0.45570789  0.28330132    -0.81600
O2013       O  0.84727758  0.39966539  0.38076385    -0.84400
C2014       C  0.91908577  0.42608779  0.30431445     0.96400
C2015       C  0.92356410  0.49108210  0.31168350     1.03800
O2016       O  0.87463024  0.43691337  0.33201619    -1.13400
O2017       O  0.85082357  0.45032610  0.38249682    -0.75800
O2018       O  0.89146908  0.46459469  0.38902084    -0.79300
O2019       O  0.90378768  0.42684834  0.28547568    -0.80000
C2020       C  0.87145643  0.46471928  0.39595992     0.95300
O2021       O  0.88884774  0.41559290  0.38293753    -0.77900
O2022       O  0.82826744  0.44055961  0.32097374    -0.83100
C2023       C  0.83119223  0.38907826  0.29270860     0.97900
C2024       C  0.83594331  0.45199855  0.29577990     1.03800
O2025       O  0.85024751  0.40550272  0.27846707    -0.78800
C2026       C  0.86679167  0.39919283  0.39016197     1.02100
Fe2027     Fe  0.54659209  0.45408353  0.35624949     1.65800
Fe2028     Fe  0.58204524  0.42581516  0.35357272     1.73200
Fe2029     Fe  0.56447972  0.44300249  0.28753503     1.54400
O2030       O  0.52676635  0.43334690  0.28440931    -0.82500
O2031       O  0.61494314  0.44813626  0.33001362    -0.80800
O2032       O  0.51450003  0.43505206  0.33143901    -0.85000
O2033       O  0.55924719  0.48557570  0.33003983    -0.79900
O2034       O  0.55329784  0.40606611  0.28221103    -0.81600
O2035       O  0.59573455  0.45187735  0.38859640    -0.84400
C2036       C  0.57212522  0.49410349  0.30606075     0.96400
C2037       C  0.50976510  0.42943645  0.30365499     1.03800
O2038       O  0.56426364  0.44079413  0.33239755    -1.13400
O2039       O  0.55106709  0.40227994  0.37941618    -0.75800
O2040       O  0.53179729  0.42453407  0.38612865    -0.79300
O2041       O  0.57660311  0.48078854  0.28798323    -0.80000
C2042       C  0.53414946  0.40559733  0.39170257     0.95300
O2043       O  0.57705874  0.47456354  0.38314427    -0.77900
O2044       O  0.57058747  0.39744989  0.32178998    -0.83100
C2045       C  0.61913167  0.45471781  0.30233938     0.97900
C2046       C  0.55902097  0.39169415  0.29643421     1.03800
O2047       O  0.60165573  0.45192416  0.28434982    -0.78800
C2048       C  0.59336275  0.47056255  0.39561856     1.02100
Fe2049     Fe  0.55480893  0.10127561  0.36428894     1.65800
Fe2050     Fe  0.58272086  0.16431594  0.35650266     1.73200
Fe2051     Fe  0.56468224  0.12682258  0.29312634     1.54400
O2052       O  0.57610315  0.10017584  0.29253468    -0.82500
O2053       O  0.56244260  0.17560912  0.32901130    -0.80800
O2054       O  0.57221865  0.08594523  0.33970932    -0.85000
O2055       O  0.52220342  0.08180312  0.33978155    -0.79900
O2056       O  0.60180355  0.15355545  0.28638871    -0.81600
O2057       O  0.55431011  0.15405240  0.38867952    -0.84400
C2058       C  0.51357641  0.08321067  0.31407702     0.96400
C2059       C  0.57832808  0.08629672  0.31215918     1.03800
O2060       O  0.56742075  0.13083084  0.33793121    -1.13400
O2061       O  0.60537965  0.15763501  0.38591234    -0.75800
O2062       O  0.58595357  0.11658527  0.39230153    -0.79300
O2063       O  0.52679492  0.09958671  0.29448165    -0.80000
C2064       C  0.60408103  0.13819202  0.39740873     0.95300
O2065       O  0.53535753  0.11279010  0.39159785    -0.77900
O2066       O  0.61287883  0.17845842  0.32668889    -0.83100
C2067       C  0.55323070  0.17041365  0.30240263     0.97900
C2068       C  0.61778538  0.17259347  0.30091968     1.03800
O2069       O  0.55350068  0.15316270  0.28707085    -0.78800
C2070       C  0.53718602  0.13341445  0.39903964     1.02100
C2071       C  0.59751082  0.03788607  0.32286392    -0.02700
C2072       C  0.58250864  0.02093393  0.30025521     0.07000
C2073       C  0.57417671  0.02947415  0.27554514    -0.02800
C2074       C  0.57654600  0.05337839  0.27663937    -0.02800
C2075       C  0.58647936  0.06815906  0.30305288     0.07100
C2076       C  0.59946079  0.06147094  0.32437387    -0.03000
Br2077     Br  0.61920599  0.08415991  0.35630592    -0.01500
Br2078     Br  0.61476940  0.02839363  0.35222099    -0.01600
Br2079     Br  0.56493718  0.06476859  0.24267290    -0.01600
Br2080     Br  0.55796690  0.50787897  0.24152717    -0.01600
C2081       C  0.95789592  0.02599597  0.28073976    -0.02700
C2082       C  0.94215223  0.01788049  0.30659630     0.07000
C2083       C  0.94660524  0.03517221  0.33009778    -0.02800
C2084       C  0.96888929  0.05824841  0.33047512    -0.02800
C2085       C  0.98706413  0.06418891  0.30755511     0.07100
C2086       C  0.98054663  0.04898991  0.28141481    -0.03000
Br2087     Br  0.50318943  0.05854311  0.24743201    -0.01500
Br2088     Br  0.94929774  0.50570961  0.24478775    -0.01600
Br2089     Br  0.97469825  0.08178103  0.36264785    -0.01600
Br2090     Br  0.92203183  0.02746514  0.36176253    -0.01600
C2091       C  0.95340711  0.42932828  0.27039841    -0.02700
C2092       C  0.93664145  0.41745655  0.29464449     0.07000
C2093       C  0.94087178  0.40184904  0.31422575    -0.02800
C2094       C  0.96422846  0.40266274  0.31399543    -0.02800
C2095       C  0.98325056  0.41912474  0.29411947     0.07100
C2096       C  0.97681638  0.43004589  0.27002627    -0.03000
Br2097     Br  0.50059476  0.44796401  0.23833322    -0.01500
Br2098     Br  0.94582367  0.44688323  0.23964491    -0.01600
Br2099     Br  0.97082828  0.38264123  0.34236069    -0.01600
Br2100     Br  0.91519332  0.38070553  0.34260212    -0.01600
C2101       C  0.85834361  0.35549299  0.39800758    -0.02700
C2102       C  0.86446209  0.37880537  0.41026937     0.07000
C2103       C  0.87193702  0.38380247  0.44083641    -0.02800
C2104       C  0.87586359  0.36672120  0.45817772    -0.02800
C2105       C  0.87378470  0.34485888  0.44445106     0.07100
C2106       C  0.86316327  0.33861735  0.41464363    -0.03000
Br2107     Br  0.85537779  0.30760200  0.39507899    -0.01500
Br2108     Br  0.84400308  0.34722712  0.35775522    -0.01600
Br2109     Br  0.88274529  0.37339943  0.50111553    -0.01600
Br2110     Br  0.87661158  0.41433837  0.45878402    -0.01600
C2111       C  0.48836802  0.37896825  0.45706677    -0.02700
C2112       C  0.97439180  0.35353158  0.44898176     0.07000
C2113       C  0.98310619  0.34458690  0.42483961    -0.02800
C2114       C  0.00326451  0.36131685  0.40644678    -0.02800
C2115       C  0.51601313  0.38695518  0.41335388     0.07100
C2116       C  0.50959872  0.39526243  0.44001254    -0.03000
Br2117     Br  0.53053502  0.42900492  0.45397683    -0.01500
Br2118     Br  0.47782307  0.39271116  0.48974114    -0.01600
Br2119     Br  0.01211465  0.34894321  0.37089724    -0.01600
Br2120     Br  0.96818571  0.30928298  0.41738984    -0.01600
C2121       C  0.98356484  0.14129831  0.43075148    -0.02700
C2122       C  0.97588769  0.12475393  0.45581832     0.07000
C2123       C  0.99129280  0.11457579  0.46490881    -0.02800
C2124       C  0.51173635  0.11811028  0.44678467    -0.02800
C2125       C  0.51796115  0.13278756  0.42021511     0.07100
C2126       C  0.50408596  0.14480203  0.41266481    -0.03000
Br2127     Br  0.51106668  0.16375744  0.37553422    -0.01500
Br2128     Br  0.96669829  0.16010080  0.42145108    -0.01600
Br2129     Br  0.53047560  0.10159749  0.45800135    -0.01600
Br2130     Br  0.98485196  0.09506004  0.50166337    -0.01600
C2131       C  0.85439799  0.49011665  0.42379566    -0.02700
C2132       C  0.87360792  0.48374827  0.41930051     0.07000
C2133       C  0.89665530  0.99789612  0.43539076    -0.02800
C2134       C  0.90220149  0.02048152  0.44954945    -0.02800
C2135       C  0.88387693  0.02801967  0.45155504     0.07100
C2136       C  0.85963810  0.01221888  0.43955282    -0.03000
Br2137     Br  0.83332515  0.02068017  0.44502158    -0.01500
Br2138     Br  0.82024028  0.46805717  0.41114375    -0.01600
Br2139     Br  0.93623253  0.04229982  0.46303303    -0.01600
Br2140     Br  0.92057691  0.98609452  0.44104767    -0.01600
C2141       C  0.90711107  0.21504928  0.44647497    -0.02700
C2142       C  0.91967852  0.23165581  0.47071613     0.07000
C2143       C  0.93225735  0.22503487  0.49258069    -0.02800
C2144       C  0.92888403  0.20074426  0.49312724    -0.02800
C2145       C  0.91303767  0.18286129  0.47161771     0.07100
C2146       C  0.90381657  0.19068822  0.44694494    -0.03000
Br2147     Br  0.88461399  0.16744487  0.41537202    -0.01500
Br2148     Br  0.89171685  0.22444365  0.41453498    -0.01600
Br2149     Br  0.94557001  0.19183157  0.52391588     0.01100
Br2150     Br  0.95320104  0.24916601  0.52265546    -0.01600
C2151       C  0.63936837  0.13088314  0.46369792    -0.02700
C2152       C  0.65959651  0.13030060  0.44837419     0.07000
C2153       C  0.66423343  0.13832471  0.41750154    -0.02800
C2154       C  0.64700061  0.14320685  0.40161758    -0.02800
C2155       C  0.62516351  0.14013543  0.41603691     0.07100
C2156       C  0.62225381  0.13558725  0.44739205    -0.03000
Br2157     Br  0.59502081  0.13654260  0.46805138    -0.01500
Br2158     Br  0.63460459  0.12585572  0.50718826    -0.01600
Br2159     Br  0.65249469  0.15304480  0.35936446    -0.01600
Br2160     Br  0.69316027  0.14194888  0.39535242    -0.01600
C2161       C  0.63583523  0.49461990  0.42145648    -0.02700
C2162       C  0.61042157  0.48904491  0.41845185     0.07000
C2163       C  0.60203799  0.50323623  0.43538638    -0.02800
C2164       C  0.61915058  0.02374601  0.45265141    -0.02800
C2165       C  0.64441477  0.02962876  0.45452914     0.07100
C2166       C  0.65259030  0.01467477  0.43975536    -0.03000
Br2167     Br  0.68715577  0.02222891  0.44411146    -0.01500
Br2168     Br  0.64904857  0.47664845  0.39906271    -0.01600
Br2169     Br  0.60853395  0.04543912  0.47139003    -0.01600
Br2170     Br  0.56721386  0.49545358  0.43547903    -0.01600
C2171       C  0.80523846  0.17405086  0.98525805    -0.02700
C2172       C  0.78383565  0.17184602  0.47169893     0.07000
C2173       C  0.78361619  0.19270257  0.45909411    -0.02800
C2174       C  0.80586702  0.21591088  0.45912667    -0.02800
C2175       C  0.82775658  0.21805121  0.47272431     0.07100
C2176       C  0.82696413  0.19711946  0.98632129    -0.03000
Br2177     Br  0.85666649  0.19899592  0.00434257    -0.01500
Br2178     Br  0.80638216  0.14464502  0.99829478    -0.01600
Br2179     Br  0.80593235  0.24487308  0.44277185    -0.01600
Br2180     Br  0.75264332  0.18970104  0.44390778    -0.01600
C2181       C  0.77145623  0.06160232  0.48983549    -0.02700
C2182       C  0.76539697  0.07417638  0.46758193     0.07000
C2183       C  0.78139053  0.08452162  0.44237050    -0.02800
C2184       C  0.80585253  0.08753682  0.44317796    -0.02800
C2185       C  0.81378785  0.07949762  0.46896775     0.07100
C2186       C  0.79553455  0.06401810  0.49034117    -0.03000
Br2187     Br  0.80370229  0.04700696  0.52125370    -0.01500
Br2188     Br  0.74739484  0.04301903  0.52119385    -0.01600
Br2189     Br  0.82868336  0.10476684  0.41041019    -0.01600
Br2190     Br  0.77080669  0.09695555  0.40843563    -0.01600
C2191       C  0.99467770  0.31628158  0.10140662    -0.02700
C2192       C  0.98501284  0.29827795  0.12495599     0.07000
C2193       C  0.95944097  0.28847434  0.13341948    -0.02800
C2194       C  0.94314896  0.29282768  0.11490823    -0.02800
C2195       C  0.95221866  0.30748179  0.08852879     0.07100
C2196       C  0.97822175  0.32046225  0.08285103    -0.03000
Br2197     Br  0.99099131  0.34203029  0.04796341    -0.01500
Br2198     Br  0.53050932  0.33598404  0.09496266    -0.01600
Br2199     Br  0.90771981  0.27738583  0.12447210    -0.01600
Br2200     Br  0.94557388  0.26827450  0.16933478    -0.01600
C2201       C  0.98930642  0.18468979  0.10304744    -0.02700
C2202       C  0.97969590  0.19804710  0.11921716     0.07000
C2203       C  0.95338452  0.18801763  0.12106375    -0.02800
C2204       C  0.93705623  0.16533398  0.10667921    -0.02800
C2205       C  0.94660512  0.15342437  0.08753013     0.07100
C2206       C  0.97295374  0.16289646  0.08662921    -0.03000
Br2207     Br  0.98728049  0.14730419  0.06169846    -0.01500
Br2208     Br  0.52498055  0.19595144  0.10364814    -0.01600
Br2209     Br  0.90131342  0.15056630  0.11414292    -0.01600
Br2210     Br  0.93912759  0.20638506  0.14043491    -0.01600
C2211       C  0.52434221  0.33049312  0.25311710    -0.02700
C2212       C  0.54305193  0.32318770  0.25178766     0.07000
C2213       C  0.56604288  0.33762804  0.26772814    -0.02800
C2214       C  0.57141757  0.36034754  0.28105491    -0.02800
C2215       C  0.55289425  0.36761330  0.28226754     0.07100
C2216       C  0.52913902  0.35235506  0.26880440    -0.03000
Br2217     Br  0.00315074  0.36164733  0.27113239    -0.01500
Br2218     Br  0.99241082  0.31191554  0.23240857    -0.01600
Br2219     Br  0.60557716  0.38298620  0.29377030    -0.01600
Br2220     Br  0.59078518  0.32677939  0.27241839    -0.01600
C2221       C  0.54472900  0.22603499  0.28019572    -0.02700
C2222       C  0.53411179  0.21862889  0.25107781     0.07000
C2223       C  0.52448528  0.19373228  0.24210096    -0.02800
C2224       C  0.52822358  0.17713337  0.26062804    -0.02800
C2225       C  0.54304570  0.18574303  0.28761654     0.07100
C2226       C  0.54970599  0.21003305  0.29828541    -0.03000
Br2227     Br  0.56623446  0.22277775  0.33694731    -0.01500
Br2228     Br  0.55150263  0.25809325  0.29551491    -0.01600
Br2229     Br  0.51177297  0.14246643  0.24880047    -0.01600
Br2230     Br  0.00722455  0.18264085  0.20354487    -0.01600
C2231       C  0.70707891  0.05639793  0.11274710    -0.02700
C2232       C  0.69326698  0.04732089  0.08574970     0.07000
C2233       C  0.68363036  0.02231496  0.07757019    -0.02800
C2234       C  0.68979830  0.00694364  0.09500975    -0.02800
C2235       C  0.70735679  0.01724352  0.11924675     0.07100
C2236       C  0.71522435  0.04195742  0.12875984    -0.03000
Br2237     Br  0.73980732  0.05794916  0.16071682    -0.01500
Br2238     Br  0.71655655  0.08971534  0.12595671    -0.01600
Br2239     Br  0.67397673  0.47198674  0.08519094    -0.01600
Br2240     Br  0.66396455  0.00997703  0.04084079    -0.01600
C2241       C  0.81093015  0.00736568  0.08587640    -0.02700
C2242       C  0.80584761  0.01358290  0.11529681     0.07000
C2243       C  0.82535577  0.03495638  0.12992121    -0.02800
C2244       C  0.84679195  0.05198219  0.11350211    -0.02800
C2245       C  0.84986609  0.04728758  0.08302634     0.07100
C2246       C  0.83303505  0.02408613  0.07018130    -0.03000
Br2247     Br  0.83968882  0.01586884  0.03009046    -0.01500
Br2248     Br  0.78825438  0.47653706  0.06561791    -0.01600
Br2249     Br  0.87270792  0.08156656  0.13289303    -0.01600
Br2250     Br  0.82426842  0.04065648  0.17297576    -0.01600
C2251       C  0.66129972  0.45609557  0.29975545    -0.02700
C2252       C  0.64493831  0.46481348  0.28946811     0.07000
C2253       C  0.65205578  0.48067689  0.26366867    -0.02800
C2254       C  0.67265829  0.48426670  0.24580959    -0.02800
C2255       C  0.68692688  0.47297142  0.25420852     0.07100
C2256       C  0.68211196  0.46013193  0.28198902    -0.03000
Br2257     Br  0.70357208  0.44698624  0.29486779    -0.01500
Br2258     Br  0.65513438  0.43716370  0.33683659    -0.01600
Br2259     Br  0.67958194  0.00238710  0.20801693    -0.01600
Br2260     Br  0.63386866  0.99776273  0.25217171    -0.01600
C2261       C  0.80785507  0.47145365  0.29182750    -0.02700
C2262       C  0.81996524  0.45947168  0.27811938     0.07000
C2263       C  0.81631595  0.45382196  0.24660749    -0.02800
C2264       C  0.80098278  0.46019215  0.22938719    -0.02800
C2265       C  0.78724496  0.46996056  0.24367534     0.07100
C2266       C  0.79100660  0.47613116  0.27472980    -0.03000
Br2267     Br  0.77300697  0.49087441  0.29355821    -0.01500
Br2268     Br  0.81475723  0.48214231  0.33347626    -0.01600
Br2269     Br  0.79835358  0.45529581  0.18587048    -0.01600
Br2270     Br  0.82960170  0.43471205  0.22682567    -0.01600
C2271       C  0.62832184  0.39409205  0.15931089    -0.02700
C2272       C  0.64773250  0.40026826  0.13808557     0.07000
C2273       C  0.64378724  0.38391971  0.11358922    -0.02800
C2274       C  0.62256449  0.35988178  0.11344779    -0.02800
C2275       C  0.60492309  0.35250865  0.13719403     0.07100
C2276       C  0.60685112  0.37035457  0.15866437    -0.03000
Br2277     Br  0.58049268  0.36188557  0.18802507    -0.01500
Br2278     Br  0.63197510  0.41775637  0.19035831    -0.01600
Br2279     Br  0.61944186  0.33615046  0.08299706    -0.01600
Br2280     Br  0.66912658  0.39284609  0.08264436    -0.01600
C2281       C  0.82597523  0.30460234  0.11956014    -0.02700
C2282       C  0.80202697  0.29009434  0.10610864     0.07000
C2283       C  0.80046421  0.28148495  0.07599602    -0.02800
C2284       C  0.82246083  0.28690905  0.05990332    -0.02800
C2285       C  0.84623317  0.30009831  0.07388944     0.07100
C2286       C  0.84800886  0.30936631  0.10358378    -0.03000
Br2287     Br  0.88057509  0.32815750  0.12234897    -0.01500
Br2288     Br  0.82859226  0.31845609  0.15949914    -0.01600
Br2289     Br  0.82006112  0.27606445  0.01838658    -0.01600
Br2290     Br  0.76814549  0.26031100  0.05727464    -0.01600
C2291       C  0.73819124  0.19203862  0.10802910    -0.02700
C2292       C  0.71768892  0.19449800  0.11790096     0.07000
C2293       C  0.69305791  0.17580887  0.11102767    -0.02800
C2294       C  0.68888561  0.15475111  0.09384736    -0.02800
C2295       C  0.70951957  0.15294546  0.08184652     0.07100
C2296       C  0.73435423  0.17189299  0.08947820    -0.03000
Br2297     Br  0.76404388  0.17241266  0.07320315    -0.01500
Br2298     Br  0.77192560  0.21726023  0.11899287    -0.01600
Br2299     Br  0.65478361  0.12819672  0.08843982    -0.01600
Br2300     Br  0.66511314  0.17935774  0.12531109    -0.01600
C2301       C  0.78946584  0.36311165  0.26780967    -0.02700
C2302       C  0.81314220  0.36623981  0.27599036     0.07000
C2303       C  0.81977241  0.34841514  0.26665044    -0.02800
C2304       C  0.80239082  0.32691627  0.25048915    -0.02800
C2305       C  0.77893874  0.32420856  0.24059651     0.07100
C2306       C  0.77300987  0.34308972  0.24908665    -0.03000
Br2307     Br  0.74353638  0.34379196  0.23378427    -0.01500
Br2308     Br  0.77996332  0.38720883  0.28131062    -0.01600
Br2309     Br  0.81087874  0.30096569  0.24401817    -0.01600
Br2310     Br  0.85288854  0.35358945  0.27611539    -0.01600
C2311       C  0.65444736  0.21532376  0.28972278    -0.02700
C2312       C  0.64273658  0.18910718  0.28647110     0.07000
C2313       C  0.65411613  0.17901081  0.26719588    -0.02800
C2314       C  0.67464508  0.19475636  0.24853336    -0.02800
C2315       C  0.68501436  0.22071371  0.25036668     0.07100
C2316       C  0.67580990  0.23086297  0.27233670    -0.03000
Br2317     Br  0.69193174  0.26659732  0.27738149    -0.01500
Br2318     Br  0.64036275  0.23090096  0.31531117    -0.01600
Br2319     Br  0.68693411  0.18073290  0.21837082    -0.01600
Br2320     Br  0.64204009  0.14362561  0.26628203    -0.01600
C2321       C  0.74968195  0.38663237  0.12581672    -0.02700
C2322       C  0.72889247  0.38773529  0.13795734     0.07000
C2323       C  0.70625770  0.36558030  0.14340973    -0.02800
C2324       C  0.70470594  0.34261206  0.13807289    -0.02800
C2325       C  0.72631659  0.34140606  0.12995129     0.07100
C2326       C  0.74862531  0.36334387  0.12268142    -0.03000
Br2327     Br  0.77782518  0.36133404  0.11046514    -0.01500
Br2328     Br  0.77981751  0.41681138  0.11551874    -0.01600
Br2329     Br  0.67305695  0.31262790  0.14421066    -0.01600
Br2330     Br  0.67752383  0.36600244  0.16071245    -0.01600
C2331       C  0.62568446  0.23239314  0.15245929    -0.02700
C2332       C  0.64351366  0.24495635  0.12956483     0.07000
C2333       C  0.63688032  0.25494413  0.10464327    -0.02800
C2334       C  0.61469666  0.25674858  0.10578902    -0.02800
C2335       C  0.59958133  0.24890017  0.13218857     0.07100
C2336       C  0.60369408  0.23425598  0.15376293    -0.03000
Br2337     Br  0.57997447  0.21785812  0.18623021    -0.01500
Br2338     Br  0.63272433  0.21458804  0.18360287    -0.01600
Br2339     Br  0.60658087  0.27174847  0.07235050    -0.01600
Br2340     Br  0.65972599  0.26905822  0.07096729    -0.01600
Fe2341     Fe  0.71051147  0.28186039  0.68672472     1.65800
Fe2342     Fe  0.74835728  0.25710920  0.68275725     1.73200
Fe2343     Fe  0.72487254  0.26871978  0.61784242     1.54400
O2344       O  0.68591082  0.24943292  0.61852064    -0.82500
O2345       O  0.77607508  0.27086056  0.64879288    -0.80800
O2346       O  0.67977553  0.26793830  0.65830222    -0.85000
O2347       O  0.72785392  0.31494315  0.66422116    -0.79900
O2348       O  0.72414803  0.23487677  0.61427716    -0.81600
O2349       O  0.76896056  0.29089271  0.70542978    -0.84400
C2350       C  0.72763954  0.31868628  0.63596852     0.96400
C2351       C  0.67178772  0.25422318  0.63492578     1.03800
O2352       O  0.72780925  0.26894418  0.66223701    -1.13400
O2353       O  0.72274590  0.24112052  0.71959170    -0.75800
O2354       O  0.69202005  0.24967971  0.70997004    -0.79300
O2355       O  0.72483719  0.30261380  0.61598438    -0.80000
C2356       C  0.70088153  0.23830886  0.72493430     0.95300
O2357       O  0.73815958  0.29726976  0.72001564    -0.77900
O2358       O  0.72992455  0.22314868  0.66045516    -0.83100
C2359       C  0.77977705  0.28307240  0.62411721     0.97900
C2360       C  0.72454766  0.21895483  0.63232661     1.03800
O2361       O  0.76339689  0.28774146  0.61275401    -0.78800
C2362       C  0.76103127  0.30277122  0.72134666     1.02100
Fe2363     Fe  0.71513248  0.43262060  0.69491277     1.65800
Fe2364     Fe  0.74667533  0.99504116  0.68537811     1.73200
Fe2365     Fe  0.72549232  0.45685428  0.62404593     1.54400
O2366       O  0.72723949  0.42415821  0.62300294    -0.82500
O2367       O  0.72315239  0.00434117  0.66249181    -0.80800
O2368       O  0.73082681  0.41512885  0.67098817    -0.85000
O2369       O  0.68232599  0.41525826  0.66990169    -0.79900
O2370       O  0.76407617  0.47671301  0.61924272    -0.81600
O2371       O  0.72276236  0.48707334  0.72253797    -0.84400
C2372       C  0.67339385  0.41872362  0.64536667     0.96400
C2373       C  0.73011897  0.41087071  0.64279754     1.03800
O2374       O  0.72906848  0.46138296  0.66827726    -1.13400
O2375       O  0.77084444  0.98748019  0.71013644    -0.75800
O2376       O  0.74651863  0.44740715  0.72250548    -0.79300
O2377       O  0.68658476  0.43599713  0.62668507    -0.80000
C2378       C  0.76691392  0.46794666  0.72422422     0.95300
O2379       O  0.69752814  0.44616375  0.72174669    -0.77900
O2380       O  0.77337347  0.00826983  0.65031111    -0.83100
C2381       C  0.71810016  0.00242901  0.63441782     0.97900
C2382       C  0.77949512  0.99827893  0.62899401     1.03800
O2383       O  0.72240342  0.48849648  0.61709736    -0.78800
C2384       C  0.70363123  0.46749261  0.73196054     1.02100
Fe2385     Fe  0.57190103  0.28382046  0.69284946     1.65800
Fe2386     Fe  0.00809699  0.25555404  0.68774949     1.73200
Fe2387     Fe  0.54412756  0.27385340  0.62273463     1.54400
O2388       O  0.57127737  0.31147979  0.62414661    -0.82500
O2389       O  0.99316839  0.22600601  0.65760764    -0.80800
O2390       O  0.59045290  0.31642952  0.66871364    -0.85000
O2391       O  0.58676151  0.26658109  0.66696293    -0.79900
O2392       O  0.51751543  0.28517712  0.61875941    -0.81600
O2393       O  0.51570878  0.23332270  0.71624653    -0.84400
C2394       C  0.58517986  0.25978016  0.63948439     0.96400
C2395       C  0.58768838  0.32499308  0.64370740     1.03800
O2396       O  0.54132168  0.27092533  0.66771222    -1.13400
O2397       O  0.51894563  0.28327007  0.72047262    -0.75800
O2398       O  0.56063168  0.30291433  0.72079901    -0.79300
O2399       O  0.57092592  0.26224368  0.62034387    -0.80000
C2400       C  0.53997193  0.30076847  0.72961533     0.95300
O2401       O  0.55736081  0.25311254  0.72117960    -0.77900
O2402       O  0.99611248  0.27578063  0.66182606    -0.83100
C2403       C  0.99809719  0.22131189  0.63118962     0.97900
C2404       C  0.00072167  0.28535334  0.63550841     1.03800
O2405       O  0.51682615  0.23708773  0.61594715    -0.78800
C2406       C  0.53573019  0.23519478  0.72741252     1.02100
Fe2407     Fe  0.73726840  0.11070430  0.52872467     1.65800
Fe2408     Fe  0.67547791  0.08963214  0.52039076     1.73200
Fe2409     Fe  0.71276165  0.10275846  0.95785967     1.54400
O2410       O  0.74683507  0.13529315  0.96020820    -0.82500
O2411       O  0.66023988  0.05614823  0.99448135    -0.80800
O2412       O  0.75661074  0.14410835  0.50736160    -0.85000
O2413       O  0.75308277  0.09531194  0.50116649    -0.79900
O2414       O  0.69554495  0.12415159  0.95333428    -0.81600
O2415       O  0.68149915  0.07180998  0.55725677    -0.84400
C2416       C  0.74835283  0.08445805  0.97666949     0.96400
C2417       C  0.75953796  0.14950760  0.98183126     1.03800
O2418       O  0.70847263  0.10072948  0.50223781    -1.13400
O2419       O  0.68885697  0.12273780  0.54457684    -0.75800
O2420       O  0.72538634  0.12738130  0.56058535    -0.79300
O2421       O  0.73109440  0.08208744  0.95859511    -0.80000
C2422       C  0.70841372  0.13357060  0.56121487     0.95300
O2423       O  0.72038011  0.07806559  0.55143915    -0.77900
O2424       O  0.66314370  0.10453442  0.98423312    -0.83100
C2425       C  0.66289761  0.05321292  0.96636961     0.97900
C2426       C  0.67408725  0.11960825  0.96255667     1.03800
O2427       O  0.67953473  0.07017039  0.94982872    -0.78800
C2428       C  0.69905312  0.06716828  0.56383083     1.02100
Fe2429     Fe  0.87965487  0.11556472  0.52847158     1.65800
Fe2430     Fe  0.91521751  0.08724914  0.52260456     1.73200
Fe2431     Fe  0.89536025  0.10427152  0.95903858     1.54400
O2432       O  0.85720034  0.09367750  0.95840765    -0.82500
O2433       O  0.94771210  0.10959430  0.99753901    -0.80800
O2434       O  0.84678883  0.09729851  0.50441100    -0.85000
O2435       O  0.89225407  0.14763871  0.50305094    -0.79900
O2436       O  0.88478201  0.06706999  0.95357838    -0.81600
O2437       O  0.93138620  0.11444383  0.55661317    -0.84400
C2438       C  0.90335775  0.15608894  0.97820452     0.96400
C2439       C  0.84105465  0.09086624  0.97843367     1.03800
O2440       O  0.89663112  0.10219449  0.50298405    -1.13400
O2441       O  0.88517772  0.06405949  0.54998174    -0.75800
O2442       O  0.86496087  0.08535943  0.55782343    -0.79300
O2443       O  0.90658434  0.14230448  0.95928203    -0.80000
C2444       C  0.86775657  0.06651860  0.56232253     0.95300
O2445       O  0.91075401  0.13556297  0.55475629    -0.77900
O2446       O  0.90289178  0.05876034  0.99248411    -0.83100
C2447       C  0.95073559  0.11571715  0.96968518     0.97900
C2448       C  0.89081155  0.05266076  0.96739322     1.03800
O2449       O  0.93265713  0.11364864  0.95324795    -0.78800
C2450       C  0.92857332  0.13269457  0.56476410     1.02100
Fe2451     Fe  0.88764193  0.26696565  0.52920631     1.65800
Fe2452     Fe  0.91527322  0.32884231  0.51685884     1.73200
Fe2453     Fe  0.89666000  0.28858536  0.95800599     1.54400
O2454       O  0.91507526  0.26774207  0.95996379    -0.82500
O2455       O  0.90026802  0.34077142  0.98168877    -0.80800
O2456       O  0.90275399  0.24928245  0.50391681    -0.85000
O2457       O  0.85403889  0.24794528  0.50739602    -0.79900
O2458       O  0.93078284  0.32037300  0.94894500    -0.81600
O2459       O  0.88337273  0.32045579  0.54223863    -0.84400
C2460       C  0.84856630  0.24266651  0.98185563     0.96400
C2461       C  0.91235610  0.25125363  0.97934097     1.03800
O2462       O  0.90027655  0.29479141  0.50103581    -1.13400
O2463       O  0.93311802  0.32272946  0.55407364    -0.75800
O2464       O  0.91978129  0.28216465  0.55402537    -0.79300
O2465       O  0.86271623  0.25556984  0.96031741    -0.80000
C2466       C  0.93417283  0.30382601  0.56370717     0.95300
O2467       O  0.87058821  0.28145062  0.55724048    -0.77900
O2468       O  0.94700825  0.33844101  0.99326479    -0.83100
C2469       C  0.88403159  0.33025645  0.96069178     0.97900
C2470       C  0.94921604  0.33583544  0.96502506     1.03800
O2471       O  0.87722195  0.30807941  0.95265365    -0.78800
C2472       C  0.86874239  0.30111486  0.55733888     1.02100
Fe2473     Fe  0.90470930  0.44851545  0.85876465     1.65800
Fe2474     Fe  0.84095780  0.42200706  0.85042204     1.73200
Fe2475     Fe  0.87984582  0.44036344  0.78757065     1.54400
O2476       O  0.90896716  0.47707142  0.78977685    -0.82500
O2477       O  0.82632713  0.39211890  0.82042480    -0.80800
O2478       O  0.92366729  0.48220763  0.83700528    -0.85000
O2479       O  0.92146890  0.43341586  0.83217212    -0.79900
O2480       O  0.85596490  0.45432500  0.78272492    -0.81600
O2481       O  0.84766167  0.39990745  0.88096417    -0.84400
C2482       C  0.91970966  0.42588047  0.80502461     0.96400
C2483       C  0.92364037  0.49062538  0.81072448     1.03800
O2484       O  0.87505514  0.43684704  0.83218496    -1.13400
O2485       O  0.85141994  0.45061799  0.88281758    -0.75800
O2486       O  0.89224003  0.46555645  0.88870720    -0.79300
O2487       O  0.90446344  0.42654501  0.78603794    -0.80000
C2488       C  0.87211630  0.46537496  0.89594654     0.95300
O2489       O  0.88926446  0.41619188  0.88378058    -0.77900
O2490       O  0.82879219  0.44062258  0.82114657    -0.83100
C2491       C  0.83154660  0.38860061  0.79351747     0.97900
C2492       C  0.83604184  0.45111006  0.79536674     1.03800
O2493       O  0.85086589  0.40452269  0.77924621    -0.78800
C2494       C  0.86716793  0.39961237  0.89064762     1.02100
Fe2495     Fe  0.54654997  0.45182596  0.85663016     1.65800
Fe2496     Fe  0.58133963  0.42275620  0.85434345     1.73200
Fe2497     Fe  0.56473115  0.44064342  0.78792754     1.54400
O2498       O  0.52700852  0.43118729  0.78443950    -0.82500
O2499       O  0.61411180  0.44313042  0.82993118    -0.80800
O2500       O  0.51475362  0.43364256  0.83124783    -0.85000
O2501       O  0.56020003  0.48358350  0.83082292    -0.79900
O2502       O  0.55360267  0.40359980  0.78250957    -0.81600
O2503       O  0.59677439  0.45001361  0.88802746    -0.84400
C2504       C  0.57299252  0.49202861  0.80677422     0.96400
C2505       C  0.51007160  0.42792239  0.80350198     1.03800
O2506       O  0.56417699  0.43830701  0.83291826    -1.13400
O2507       O  0.55086059  0.40051547  0.88133163    -0.75800
O2508       O  0.53074321  0.42210579  0.88618486    -0.79300
O2509       O  0.57701144  0.47852386  0.78845285    -0.80000
C2510       C  0.53348140  0.40353717  0.89257991     0.95300
O2511       O  0.57666336  0.47154725  0.88415654    -0.77900
O2512       O  0.56756784  0.39348565  0.82370191    -0.83100
C2513       C  0.61874878  0.45055217  0.80261891     0.97900
C2514       C  0.55699828  0.38806986  0.79777390     1.03800
O2515       O  0.60188054  0.44949080  0.78481132    -0.78800
C2516       C  0.59383747  0.46831663  0.89550793     1.02100
Fe2517     Fe  0.55521682  0.09980870  0.86397348     1.65800
Fe2518     Fe  0.58213699  0.16265767  0.85502965     1.73200
Fe2519     Fe  0.56571365  0.12468717  0.79226083     1.54400
O2520       O  0.57775300  0.09852790  0.79265609    -0.82500
O2521       O  0.56131175  0.17260832  0.82694349    -0.80800
O2522       O  0.57228056  0.08391412  0.83973829    -0.85000
O2523       O  0.52249236  0.08032320  0.83964926    -0.79900
O2524       O  0.60273347  0.15187448  0.78571220    -0.81600
O2525       O  0.55357553  0.15230885  0.88699461    -0.84400
C2526       C  0.51433554  0.08135177  0.81345264     0.96400
C2527       C  0.57917315  0.08437370  0.81252767     1.03800
O2528       O  0.56774500  0.12906383  0.83704509    -1.13400
O2529       O  0.60511429  0.15690558  0.88483184    -0.75800
O2530       O  0.58677024  0.11583308  0.89129098    -0.79300
O2531       O  0.52801063  0.09711864  0.79351818    -0.80000
C2532       C  0.60448108  0.13772972  0.89623061     0.95300
O2533       O  0.53576727  0.11127216  0.89155460    -0.77900
O2534       O  0.61235661  0.17743979  0.82527809    -0.83100
C2535       C  0.55278913  0.16735849  0.80006723     0.97900
C2536       C  0.61784045  0.17159132  0.79984087     1.03800
O2537       O  0.55395664  0.15046895  0.78499617    -0.78800
C2538       C  0.53696102  0.13177128  0.89812460     1.02100
C2539       C  0.59787892  0.03565104  0.82450452    -0.02700
C2540       C  0.58371303  0.01897600  0.80121633     0.07000
C2541       C  0.57627408  0.02787251  0.77601669    -0.02800
C2542       C  0.57827380  0.05163568  0.77725579    -0.02800
C2543       C  0.58734033  0.06609784  0.80407150     0.07100
C2544       C  0.59965393  0.05915940  0.82605137    -0.03000
Br2545     Br  0.61822082  0.08134986  0.85895819    -0.01500
Br2546     Br  0.61437354  0.02594121  0.85463847    -0.01600
Br2547     Br  0.56709696  0.06312376  0.74295964    -0.01600
Br2548     Br  0.56200639  0.50703884  0.74087782    -0.01600
C2549       C  0.95803668  0.02500127  0.77953758    -0.02700
C2550       C  0.94211699  0.01729271  0.80520354     0.07000
C2551       C  0.94665389  0.03474034  0.82846119    -0.02800
C2552       C  0.96935317  0.05739209  0.82915184    -0.02800
C2553       C  0.98777835  0.06268817  0.80671374     0.07100
C2554       C  0.98117409  0.04747362  0.78055725    -0.03000
Br2555     Br  0.50430011  0.05606714  0.74712950    -0.01500
Br2556     Br  0.94877323  0.50501095  0.74324548    -0.01600
Br2557     Br  0.97530118  0.08108851  0.86112505    -0.01600
Br2558     Br  0.92155483  0.02769450  0.85927278    -0.01600
C2559       C  0.95416685  0.42931809  0.77115956    -0.02700
C2560       C  0.93742615  0.41739261  0.79543573     0.07000
C2561       C  0.94155583  0.40155135  0.81473361    -0.02800
C2562       C  0.96453772  0.40160701  0.81360762    -0.02800
C2563       C  0.98366707  0.41819158  0.79396011     0.07100
C2564       C  0.97758045  0.43003473  0.77065949    -0.03000
Br2565     Br  0.50202651  0.44958569  0.74028898    -0.01500
Br2566     Br  0.94644771  0.44675617  0.74038347    -0.01600
Br2567     Br  0.97066826  0.38044830  0.84057183    -0.01600
Br2568     Br  0.91635691  0.38105687  0.84395034    -0.01600
C2569       C  0.85961099  0.35622222  0.89754968    -0.02700
C2570       C  0.86468696  0.37904486  0.91042029     0.07000
C2571       C  0.87098909  0.38342513  0.94134940    -0.02800
C2572       C  0.87483709  0.36626221  0.95858985    -0.02800
C2573       C  0.87387178  0.34504981  0.94444247     0.07100
C2574       C  0.86473260  0.33949527  0.91397580    -0.03000
Br2575     Br  0.86023008  0.31006642  0.89297455    -0.01500
Br2576     Br  0.84599512  0.34831381  0.85694943    -0.01600
Br2577     Br  0.88027001  0.37189565  0.00184298    -0.01600
Br2578     Br  0.87393942  0.41307431  0.95991893    -0.01600
C2579       C  0.48897214  0.37709171  0.95884845    -0.02700
C2580       C  0.97370296  0.35199400  0.94974430     0.07000
C2581       C  0.98132470  0.34296334  0.92454178    -0.02800
C2582       C  0.00171760  0.35949790  0.90634168    -0.02800
C2583       C  0.51536905  0.38492649  0.91406177     0.07100
C2584       C  0.51007515  0.39310932  0.94150280    -0.03000
Br2585     Br  0.53249261  0.42626835  0.95599388    -0.01500
Br2586     Br  0.48069887  0.39090579  0.99357058    -0.01600
Br2587     Br  0.00997164  0.34736467  0.87008187    -0.01600
Br2588     Br  0.96462921  0.30783745  0.91515345    -0.01600
C2589       C  0.98239336  0.13890293  0.92821262    -0.02700
C2590       C  0.97577103  0.12410840  0.95492388     0.07000
C2591       C  0.99179662  0.11482663  0.96483143    -0.02800
C2592       C  0.51227061  0.11816237  0.94673641    -0.02800
C2593       C  0.51750661  0.13118751  0.91894426     0.07100
C2594       C  0.50255484  0.14168611  0.90991792    -0.03000
Br2595     Br  0.50738400  0.15708664  0.87043916    -0.01500
Br2596     Br  0.96468290  0.15644594  0.91661532    -0.01600
Br2597     Br  0.53256100  0.10376118  0.95975357    -0.01600
Br2598     Br  0.98608546  0.09661822  0.00254311    -0.01600
C2599       C  0.85517361  0.49109739  0.92335737    -0.02700
C2600       C  0.87410478  0.48428148  0.91948247     0.07000
C2601       C  0.89659327  0.99756965  0.93684901    -0.02800
C2602       C  0.90203606  0.01978858  0.95208710    -0.02800
C2603       C  0.88422265  0.02811302  0.95300549     0.07100
C2604       C  0.86035967  0.01301615  0.93952445    -0.03000
Br2605     Br  0.83431970  0.02205060  0.94357762    -0.01500
Br2606     Br  0.82127437  0.46974566  0.90936023    -0.01600
Br2607     Br  0.93524864  0.03978283  0.96917072    -0.01600
Br2608     Br  0.91962216  0.98473411  0.94282592    -0.01600
C2609       C  0.90608544  0.21492664  0.94732297    -0.02700
C2610       C  0.91869360  0.23148651  0.97159599     0.07000
C2611       C  0.93162221  0.22498325  0.99312043    -0.02800
C2612       C  0.92882452  0.20091225  0.99308386    -0.02800
C2613       C  0.91279408  0.18297112  0.97177156     0.07100
C2614       C  0.90293562  0.19062009  0.94760109    -0.03000
Br2615     Br  0.88306328  0.16719769  0.91654270    -0.01500
Br2616     Br  0.89067843  0.22437654  0.91544094    -0.01600
Br2617     Br  0.94654801  0.19229185  0.02278597     0.01100
Br2618     Br  0.95228213  0.24889462  0.02354523    -0.01600
C2619       C  0.64150789  0.13350683  0.96242633    -0.02700
C2620       C  0.66046623  0.13100587  0.94680416     0.07000
C2621       C  0.66423472  0.13719744  0.91538008    -0.02800
C2622       C  0.64708141  0.14214596  0.89951568    -0.02800
C2623       C  0.62597217  0.14040329  0.91443984     0.07100
C2624       C  0.62410652  0.13772518  0.94610643    -0.03000
Br2625     Br  0.59779371  0.14018007  0.96700026    -0.01500
Br2626     Br  0.63929743  0.13191160  0.00625806    -0.01600
Br2627     Br  0.65165594  0.15029110  0.85678550    -0.01600
Br2628     Br  0.69149779  0.13765437  0.89258024    -0.01600
C2629       C  0.63734603  0.49530980  0.91733602    -0.02700
C2630       C  0.61127864  0.48747925  0.91740253     0.07000
C2631       C  0.60240954  0.50049175  0.93582395    -0.02800
C2632       C  0.61936337  0.02167866  0.95220467    -0.02800
C2633       C  0.64519377  0.02958216  0.95158494     0.07100
C2634       C  0.65411852  0.01613260  0.93464082    -0.03000
Br2635     Br  0.68958355  0.02655530  0.93461009    -0.01500
Br2636     Br  0.65106195  0.47947424  0.89164406    -0.01600
Br2637     Br  0.60739901  0.04154090  0.97293705    -0.01600
Br2638     Br  0.56704964  0.49032756  0.93883007    -0.01600
C2639       C  0.80647208  0.17345477  0.48152467    -0.02700
C2640       C  0.78266248  0.17238350  0.97514300     0.07000
C2641       C  0.78240490  0.19311174  0.96218763    -0.02800
C2642       C  0.80467421  0.21628687  0.96188705    -0.02800
C2643       C  0.82658373  0.21847229  0.97552600     0.07100
C2644       C  0.82816566  0.19658171  0.48304923    -0.03000
Br2645     Br  0.85767378  0.19835900  0.50148020    -0.01500
Br2646     Br  0.80761584  0.14389091  0.49389956    -0.01600
Br2647     Br  0.80476388  0.24501062  0.94463459    -0.01600
Br2648     Br  0.75138028  0.18991866  0.94677636    -0.01600
C2649       C  0.77156852  0.06259701  0.99107078    -0.02700
C2650       C  0.76573536  0.07519144  0.96862447     0.07000
C2651       C  0.78191249  0.08549894  0.94356905    -0.02800
C2652       C  0.80620771  0.08811028  0.94449731    -0.02800
C2653       C  0.81397706  0.08010102  0.97047162     0.07100
C2654       C  0.79563649  0.06500005  0.99201893    -0.03000
Br2655     Br  0.80360101  0.04853498  0.02387146    -0.01500
Br2656     Br  0.74704433  0.04376966  0.02190127    -0.01600
Br2657     Br  0.82906358  0.10473601  0.91153977    -0.01600
Br2658     Br  0.77181327  0.09835751  0.90960964    -0.01600
C2659       C  0.99476884  0.31391463  0.59916826    -0.02700
C2660       C  0.98513442  0.29594389  0.62282865     0.07000
C2661       C  0.95959242  0.28626052  0.63147416    -0.02800
C2662       C  0.94341265  0.29119224  0.61351098    -0.02800
C2663       C  0.95244488  0.30603063  0.58726029     0.07100
C2664       C  0.97834860  0.31846570  0.58104791    -0.03000
Br2665     Br  0.99094878  0.33967484  0.54579965    -0.01500
Br2666     Br  0.53049695  0.33294771  0.59149918    -0.01600
Br2667     Br  0.90810560  0.27625635  0.62362330    -0.01600
Br2668     Br  0.94543702  0.26521208  0.66672006    -0.01600
C2669       C  0.98981591  0.18368341  0.59962591    -0.02700
C2670       C  0.98062167  0.19669662  0.61721293     0.07000
C2671       C  0.95433852  0.18641354  0.62059616    -0.02800
C2672       C  0.93763972  0.16387765  0.60624151    -0.02800
C2673       C  0.94668063  0.15222989  0.58602658     0.07100
C2674       C  0.97299656  0.16196377  0.58345524    -0.03000
Br2675     Br  0.98656949  0.14699219  0.55628914    -0.01500
Br2676     Br  0.52550866  0.19522744  0.59793156    -0.01600
Br2677     Br  0.90206748  0.14904415  0.61487792    -0.01600
Br2678     Br  0.94040118  0.20410177  0.64228816    -0.01600
C2679       C  0.52586849  0.33133587  0.74520195    -0.02700
C2680       C  0.54102987  0.32024210  0.75051922     0.07000
C2681       C  0.55935289  0.32986503  0.77386259    -0.02800
C2682       C  0.56273968  0.35035485  0.79136005    -0.02800
C2683       C  0.54940326  0.36313404  0.78403759     0.07100
C2684       C  0.53021203  0.35280085  0.76148824    -0.03000
Br2685     Br  0.00917909  0.36744868  0.75233088    -0.01500
Br2686     Br  0.00063063  0.31896602  0.71340247    -0.01600
Br2687     Br  0.58657712  0.36049849  0.82472841    -0.01600
Br2688     Br  0.58129497  0.31608429  0.78148214    -0.01600
C2689       C  0.54323185  0.22226520  0.77839955    -0.02700
C2690       C  0.53425217  0.21579201  0.74852669     0.07000
C2691       C  0.52568277  0.19133164  0.73844245    -0.02800
C2692       C  0.52926879  0.17448357  0.75669520    -0.02800
C2693       C  0.54257810  0.18243623  0.78481640     0.07100
C2694       C  0.54782477  0.20605535  0.79647142    -0.03000
Br2695     Br  0.56173043  0.21764796  0.83665495    -0.01500
Br2696     Br  0.54789145  0.25308627  0.79499349    -0.01600
Br2697     Br  0.51468707  0.14041230  0.74286729    -0.01600
Br2698     Br  0.00973479  0.18121638  0.69908288    -0.01600
C2699       C  0.70947510  0.05756501  0.61413970    -0.02700
C2700       C  0.69563198  0.04886444  0.58707545     0.07000
C2701       C  0.68518785  0.02377955  0.57881511    -0.02800
C2702       C  0.69041046  0.00781642  0.59634596    -0.02800
C2703       C  0.70770210  0.01749022  0.62087735     0.07100
C2704       C  0.71639554  0.04231369  0.63051699    -0.03000
Br2705     Br  0.74043271  0.05715391  0.66326732    -0.01500
Br2706     Br  0.72064518  0.09133068  0.62701709    -0.01600
Br2707     Br  0.67392577  0.47290138  0.58599763    -0.01600
Br2708     Br  0.66602285  0.01209909  0.54163683    -0.01600
C2709       C  0.81014950  0.00643424  0.58498536    -0.02700
C2710       C  0.80500407  0.01286951  0.61425911     0.07000
C2711       C  0.82449469  0.03435226  0.62874897    -0.02800
C2712       C  0.84596752  0.05122121  0.61227706    -0.02800
C2713       C  0.84902089  0.04635122  0.58188150     0.07100
C2714       C  0.83232174  0.02300108  0.56931310    -0.03000
Br2715     Br  0.83941407  0.01420749  0.52981002    -0.01500
Br2716     Br  0.78741098  0.47557629  0.56473461    -0.01600
Br2717     Br  0.87216616  0.08066410  0.63157319    -0.01600
Br2718     Br  0.82336559  0.04050592  0.67166241    -0.01600
C2719       C  0.65847990  0.44772838  0.79751709    -0.02700
C2720       C  0.64445242  0.45973506  0.79010130     0.07000
C2721       C  0.65382507  0.47858507  0.76760216    -0.02800
C2722       C  0.67463832  0.48269805  0.74977440    -0.02800
C2723       C  0.68693938  0.46883728  0.75523113     0.07100
C2724       C  0.67984355  0.45262142  0.78036492    -0.03000
Br2725     Br  0.69907692  0.43635088  0.79058100    -0.01500
Br2726     Br  0.64774325  0.42274465  0.82902022    -0.01600
Br2727     Br  0.68446565  0.00544754  0.71591990    -0.01600
Br2728     Br  0.63826524  0.99894436  0.76081459    -0.01600
C2729       C  0.80705313  0.46947660  0.79049565    -0.02700
C2730       C  0.81982136  0.45797005  0.77725062     0.07000
C2731       C  0.81639881  0.45194832  0.74579930    -0.02800
C2732       C  0.80115030  0.45806898  0.72804857    -0.02800
C2733       C  0.78732144  0.46797417  0.74176176     0.07100
C2734       C  0.79037177  0.47394733  0.77284068    -0.03000
Br2735     Br  0.77113064  0.48764829  0.79104274    -0.01500
Br2736     Br  0.81229444  0.47935723  0.83243934    -0.01600
Br2737     Br  0.79851230  0.45232499  0.68468910    -0.01600
Br2738     Br  0.82956118  0.43236065  0.72689939    -0.01600
C2739       C  0.62882817  0.39313372  0.66127706    -0.02700
C2740       C  0.64699792  0.40011487  0.63820729     0.07000
C2741       C  0.64170957  0.38457657  0.61252982    -0.02800
C2742       C  0.62070404  0.36035895  0.61269415    -0.02800
C2743       C  0.60464107  0.35198758  0.63814334     0.07100
C2744       C  0.60759595  0.36924557  0.66108924    -0.03000
Br2745     Br  0.58298373  0.35999952  0.69293065    -0.01500
Br2746     Br  0.63408708  0.41584972  0.69429392    -0.01600
Br2747     Br  0.61592238  0.33790379  0.57981082    -0.01600
Br2748     Br  0.66511493  0.39490523  0.57915006    -0.01600
C2749       C  0.82729242  0.30442877  0.61986950    -0.02700
C2750       C  0.80322577  0.29049141  0.60649241     0.07000
C2751       C  0.80138615  0.28258511  0.57595005    -0.02800
C2752       C  0.82315958  0.28757584  0.55963604    -0.02800
C2753       C  0.84697846  0.30006353  0.57358907     0.07100
C2754       C  0.84912342  0.30921915  0.60340694    -0.03000
Br2755     Br  0.88196232  0.32828933  0.62142728    -0.01500
Br2756     Br  0.83038884  0.31760748  0.66029780    -0.01600
Br2757     Br  0.82046509  0.27729503  0.51776084    -0.01600
Br2758     Br  0.76895618  0.26319184  0.55662944    -0.01600
C2759       C  0.74082885  0.19419372  0.60653666    -0.02700
C2760       C  0.72024724  0.19532149  0.61885045     0.07000
C2761       C  0.69575102  0.17552576  0.61419689    -0.02800
C2762       C  0.69175589  0.15478825  0.59649937    -0.02800
C2763       C  0.71228275  0.15446827  0.58182204     0.07100
C2764       C  0.73698015  0.17453892  0.58714543    -0.03000
Br2765     Br  0.76605981  0.17734291  0.56613358    -0.01500
Br2766     Br  0.77456632  0.22013801  0.61602662    -0.01600
Br2767     Br  0.65819405  0.12675426  0.59372562    -0.01600
Br2768     Br  0.66780131  0.17714721  0.63217117    -0.01600
C2769       C  0.78937133  0.36252093  0.76980134    -0.02700
C2770       C  0.81325334  0.36574540  0.77709594     0.07000
C2771       C  0.81979120  0.34798957  0.76721784    -0.02800
C2772       C  0.80224452  0.32659968  0.75109232    -0.02800
C2773       C  0.77868948  0.32395131  0.74172940     0.07100
C2774       C  0.77252057  0.34240295  0.75147773    -0.03000
Br2775     Br  0.74179845  0.34208392  0.73924612    -0.01500
Br2776     Br  0.78023726  0.38683039  0.78360330    -0.01600
Br2777     Br  0.81056005  0.30053593  0.74434559    -0.01600
Br2778     Br  0.85302874  0.35309057  0.77578008    -0.01600
C2779       C  0.65096327  0.21502232  0.78549716    -0.02700
C2780       C  0.64231569  0.18911784  0.78521754     0.07000
C2781       C  0.65619714  0.18013979  0.76878962    -0.02800
C2782       C  0.67673547  0.19640494  0.75042800    -0.02800
C2783       C  0.68441718  0.22196713  0.74956879     0.07100
C2784       C  0.67235417  0.23131639  0.76865437    -0.03000
Br2785     Br  0.68468754  0.26680757  0.77096702    -0.01500
Br2786     Br  0.63219584  0.22857324  0.80574905    -0.01600
Br2787     Br  0.69276152  0.18326134  0.72437742    -0.01600
Br2788     Br  0.64729118  0.14554248  0.77123663    -0.01600
C2789       C  0.75035364  0.38668666  0.62261634    -0.02700
C2790       C  0.72907851  0.38753771  0.63345598     0.07000
C2791       C  0.70644229  0.36527987  0.63824863    -0.02800
C2792       C  0.70538610  0.34243369  0.63399367    -0.02800
C2793       C  0.72738690  0.34150001  0.62736128     0.07100
C2794       C  0.74971353  0.36353798  0.62040651    -0.03000
Br2795     Br  0.77947205  0.36190435  0.61000296    -0.01500
Br2796     Br  0.78042392  0.41701801  0.61259368    -0.01600
Br2797     Br  0.67387639  0.31236823  0.64004783    -0.01600
Br2798     Br  0.67707441  0.36541015  0.65373069    -0.01600
C2799       C  0.62698091  0.23175115  0.64943790    -0.02700
C2800       C  0.64512375  0.24488348  0.62706640     0.07000
C2801       C  0.63897155  0.25578072  0.60272870    -0.02800
C2802       C  0.61712823  0.25815025  0.60432668    -0.02800
C2803       C  0.60147375  0.24925346  0.63021830     0.07100
C2804       C  0.60501554  0.23365942  0.65081318    -0.03000
Br2805     Br  0.58040446  0.21589219  0.68191097    -0.01500
Br2806     Br  0.63360783  0.21320498  0.67993145    -0.01600
Br2807     Br  0.61054174  0.27576079  0.57264385    -0.01600
Br2808     Br  0.66224446  0.27046467  0.56953015    -0.01600
Fe2809     Fe  0.70972689  0.78106148  0.18825273     1.65800
Fe2810     Fe  0.74769822  0.75647223  0.18232073     1.73200
Fe2811     Fe  0.72325845  0.76842152  0.11826958     1.54400
O2812       O  0.68428331  0.74989455  0.11948921    -0.82500
O2813       O  0.77509455  0.77056239  0.14831372    -0.80800
O2814       O  0.67845852  0.76708268  0.16078774    -0.85000
O2815       O  0.72631754  0.81411877  0.16586574    -0.79900
O2816       O  0.72145964  0.73411771  0.11404449    -0.81600
O2817       O  0.76853494  0.79024095  0.20526830    -0.84400
C2818       C  0.72646891  0.81838503  0.13772835     0.96400
C2819       C  0.67028787  0.75413812  0.13684608     1.03800
O2820       O  0.72677628  0.76836499  0.16270491    -1.13400
O2821       O  0.72256772  0.73993649  0.21930555    -0.75800
O2822       O  0.69186195  0.74894318  0.21177633    -0.79300
O2823       O  0.72407506  0.80277421  0.11727243    -0.80000
C2824       C  0.70090701  0.73721208  0.22559411     0.95300
O2825       O  0.73799538  0.79674849  0.22072327    -0.77900
O2826       O  0.72917570  0.72269485  0.15944806    -0.83100
C2827       C  0.77845554  0.78244521  0.12350278     0.97900
C2828       C  0.72257312  0.71829766  0.13162139     1.03800
O2829       O  0.76177176  0.78663253  0.11200551    -0.78800
C2830       C  0.76093604  0.80244172  0.22115312     1.02100
Fe2831     Fe  0.71469788  0.93440925  0.19712141     1.65800
Fe2832     Fe  0.74704004  0.49668723  0.18552052     1.73200
Fe2833     Fe  0.72626201  0.95726069  0.12519411     1.54400
O2834       O  0.72860706  0.92489696  0.12597999    -0.82500
O2835       O  0.72394741  0.50570525  0.16120646    -0.80800
O2836       O  0.72970553  0.91560441  0.17459484    -0.85000
O2837       O  0.68194032  0.91674074  0.17184894    -0.79900
O2838       O  0.76488535  0.97744304  0.12042310    -0.81600
O2839       O  0.72279992  0.98985129  0.22193298    -0.84400
C2840       C  0.67373229  0.91930835  0.14623837     0.96400
C2841       C  0.73012962  0.91133230  0.14654229     1.03800
O2842       O  0.72932366  0.96263409  0.16941422    -1.13400
O2843       O  0.77074010  0.48933740  0.21171757    -0.75800
O2844       O  0.74613169  0.94948146  0.22494634    -0.79300
O2845       O  0.68740637  0.93594364  0.12713672    -0.80000
C2846       C  0.76664743  0.96998135  0.22642970     0.95300
O2847       O  0.69737752  0.94897013  0.22286226    -0.77900
O2848       O  0.77417028  0.50920438  0.15105648    -0.83100
C2849       C  0.71834617  0.50280635  0.13326622     0.97900
C2850       C  0.78030240  0.49906019  0.12997404     1.03800
O2851       O  0.72242812  0.98835756  0.11663897    -0.78800
C2852       C  0.70357845  0.97064170  0.23184176     1.02100
Fe2853     Fe  0.57151068  0.78540179  0.19341462     1.65800
Fe2854     Fe  0.00778325  0.75769653  0.18950342     1.73200
Fe2855     Fe  0.54319598  0.77494880  0.12388777     1.54400
O2856       O  0.57050952  0.81244313  0.12437455    -0.82500
O2857       O  0.99180744  0.72804041  0.15912524    -0.80800
O2858       O  0.59059001  0.81732697  0.16822939    -0.85000
O2859       O  0.58529971  0.76691698  0.16840462    -0.79900
O2860       O  0.51663774  0.78652487  0.12019785    -0.81600
O2861       O  0.51520010  0.73508581  0.21754574    -0.84400
C2862       C  0.58365979  0.75999203  0.14100660     0.96400
C2863       C  0.58755330  0.82579728  0.14333246     1.03800
O2864       O  0.54074504  0.77249201  0.16885317    -1.13400
O2865       O  0.51954176  0.78532208  0.22279954    -0.75800
O2866       O  0.56101901  0.80552884  0.22007380    -0.79300
O2867       O  0.56983517  0.76298041  0.12165425    -0.80000
C2868       C  0.54081814  0.80323446  0.23062678     0.95300
O2869       O  0.55678642  0.75559583  0.22307697    -0.77900
O2870       O  0.99637838  0.77864995  0.16411274    -0.83100
C2871       C  0.99693507  0.72285557  0.13302396     0.97900
C2872       C  0.00052930  0.78757952  0.13744869     1.03800
O2873       O  0.51588739  0.73825277  0.11785958    -0.78800
C2874       C  0.53526783  0.73751887  0.22931605     1.02100
Fe2875     Fe  0.73535764  0.60987819  0.02935213     1.65800
Fe2876     Fe  0.67402489  0.58884016  0.01878324     1.73200
Fe2877     Fe  0.71262793  0.60235705  0.45796681     1.54400
O2878       O  0.74681006  0.63497581  0.45842948    -0.82500
O2879       O  0.66065383  0.55656848  0.49686278    -0.80800
O2880       O  0.75452243  0.64400788  0.00959402    -0.85000
O2881       O  0.75261692  0.59597397  0.00171786    -0.79900
O2882       O  0.69502837  0.62352357  0.45356500    -0.81600
O2883       O  0.67941443  0.57056471  0.05580351    -0.84400
C2884       C  0.74834967  0.58376614  0.47608993     0.96400
C2885       C  0.76063326  0.64925718  0.47938745     1.03800
O2886       O  0.70737402  0.60030129  0.00183320    -1.13400
O2887       O  0.68674023  0.62172660  0.04349106    -0.75800
O2888       O  0.72202430  0.62494717  0.06168323    -0.79300
O2889       O  0.73105061  0.58172164  0.45828094    -0.80000
C2890       C  0.70564856  0.63191878  0.06124954     0.95300
O2891       O  0.71815594  0.57639868  0.05011680    -0.77900
O2892       O  0.66384567  0.60485293  0.48615111    -0.83100
C2893       C  0.66273012  0.55316544  0.46876781     0.97900
C2894       C  0.67390919  0.61931237  0.46374687     1.03800
O2895       O  0.67927857  0.56961645  0.45165624    -0.78800
C2896       C  0.69674434  0.56554358  0.06231684     1.02100
Fe2897     Fe  0.88012769  0.61621836  0.02932544     1.65800
Fe2898     Fe  0.91608258  0.58826579  0.02356707     1.73200
Fe2899     Fe  0.89526695  0.60418556  0.45809276     1.54400
O2900       O  0.85709641  0.59350044  0.45710824    -0.82500
O2901       O  0.94693397  0.60872472  0.49713927    -0.80800
O2902       O  0.84712989  0.59769059  0.00570943    -0.85000
O2903       O  0.89236707  0.64797171  0.00344754    -0.79900
O2904       O  0.88466846  0.56702766  0.45209536    -0.81600
O2905       O  0.93221933  0.61582163  0.05748668    -0.84400
C2906       C  0.90338611  0.65590919  0.47789669     0.96400
C2907       C  0.84084849  0.59054685  0.47705909     1.03800
O2908       O  0.89713610  0.60280550  0.00391402    -1.13400
O2909       O  0.88615086  0.56515195  0.05125830    -0.75800
O2910       O  0.86574386  0.58628784  0.05901779    -0.79300
O2911       O  0.90650443  0.64216803  0.45882489    -0.80000
C2912       C  0.86866108  0.56753435  0.06358108     0.95300
O2913       O  0.91121655  0.63654557  0.05538782    -0.77900
O2914       O  0.90211380  0.55812398  0.49125292    -0.83100
C2915       C  0.95047675  0.61567115  0.46962414     0.97900
C2916       C  0.89034123  0.55239679  0.46598561     1.03800
O2917       O  0.93271753  0.61390499  0.45278716    -0.78800
C2918       C  0.92905569  0.63388136  0.06571804     1.02100
Fe2919     Fe  0.88764028  0.76750020  0.03062249     1.65800
Fe2920     Fe  0.91466212  0.82900722  0.01737080     1.73200
Fe2921     Fe  0.89786028  0.78884939  0.45692661     1.54400
O2922       O  0.91643992  0.76814484  0.45914030    -0.82500
O2923       O  0.90029133  0.84048950  0.48169491    -0.80800
O2924       O  0.90235395  0.74948435  0.00521733    -0.85000
O2925       O  0.85374710  0.74832608  0.00952233    -0.79900
O2926       O  0.93193568  0.82085501  0.44822454    -0.81600
O2927       O  0.88249421  0.82070227  0.04220817    -0.84400
C2928       C  0.84953359  0.74233078  0.47965066     0.96400
C2929       C  0.91330682  0.75139153  0.47834636     1.03800
O2930       O  0.89963846  0.79489533  0.00202045    -1.13400
O2931       O  0.93221408  0.82332500  0.05518862    -0.75800
O2932       O  0.92027274  0.78309465  0.05463336    -0.79300
O2933       O  0.86403440  0.75553926  0.45851623    -0.80000
C2934       C  0.93402540  0.80479726  0.06462241     0.95300
O2935       O  0.87095819  0.78233133  0.05882976    -0.77900
O2936       O  0.94774618  0.83916755  0.49255170    -0.83100
C2937       C  0.88439008  0.83015559  0.46028825     0.97900
C2938       C  0.95008658  0.83672799  0.46431281     1.03800
O2939       O  0.87833195  0.80831413  0.45143569    -0.78800
C2940       C  0.86833973  0.80156403  0.05796774     1.02100
Fe2941     Fe  0.90422026  0.94822183  0.35863401     1.65800
Fe2942     Fe  0.84048792  0.92179922  0.35011500     1.73200
Fe2943     Fe  0.87957373  0.94113217  0.28748288     1.54400
O2944       O  0.90906743  0.97773655  0.29042957    -0.82500
O2945       O  0.82608693  0.89201993  0.31990180    -0.80800
O2946       O  0.92330118  0.98231919  0.33779702    -0.85000
O2947       O  0.92103420  0.93359391  0.33149902    -0.79900
O2948       O  0.85611178  0.95569109  0.28327848    -0.81600
O2949       O  0.84728538  0.89965530  0.38074306    -0.84400
C2950       C  0.91909225  0.92607428  0.30432838     0.96400
C2951       C  0.92357465  0.99107614  0.31165702     1.03800
O2952       O  0.87464096  0.93691224  0.33200661    -1.13400
O2953       O  0.85083167  0.95031842  0.38250023    -0.75800
O2954       O  0.89148544  0.96461809  0.38899324    -0.79300
O2955       O  0.90380255  0.92683990  0.28548039    -0.80000
C2956       C  0.87146788  0.96472710  0.39594731     0.95300
O2957       O  0.88885807  0.91561122  0.38295086    -0.77900
O2958       O  0.82828772  0.94057178  0.32096708    -0.83100
C2959       C  0.83120152  0.88907416  0.29269675     0.97900
C2960       C  0.83595967  0.95199825  0.29576427     1.03800
O2961       O  0.85026462  0.90549091  0.27846034    -0.78800
C2962       C  0.86680327  0.89919774  0.39015879     1.02100
Fe2963     Fe  0.54658870  0.95409172  0.35621911     1.65800
Fe2964     Fe  0.58203140  0.92581263  0.35355261     1.73200
Fe2965     Fe  0.56447207  0.94299859  0.28750539     1.54400
O2966       O  0.52675604  0.93333626  0.28437712    -0.82500
O2967       O  0.61493040  0.94812831  0.32999306    -0.80800
O2968       O  0.51449758  0.93506821  0.33140347    -0.85000
O2969       O  0.55925310  0.98558354  0.33000868    -0.79900
O2970       O  0.55329852  0.90606273  0.28218581    -0.81600
O2971       O  0.59572303  0.95187582  0.38857531    -0.84400
C2972       C  0.57211937  0.99410461  0.30602028     0.96400
C2973       C  0.50975875  0.92944112  0.30362243     1.03800
O2974       O  0.56425540  0.94079506  0.33237023    -1.13400
O2975       O  0.55105079  0.90228242  0.37939544    -0.75800
O2976       O  0.53178477  0.92454151  0.38609759    -0.79300
O2977       O  0.57658732  0.98078415  0.28794016    -0.80000
C2978       C  0.53413388  0.90560357  0.39167663     0.95300
O2979       O  0.57705422  0.97456700  0.38312182    -0.77900
O2980       O  0.57057069  0.89744249  0.32177793    -0.83100
C2981       C  0.61912333  0.95471501  0.30232069     0.97900
C2982       C  0.55901127  0.89168686  0.29641824     1.03800
O2983       O  0.60165083  0.95192728  0.28432827    -0.78800
C2984       C  0.59335380  0.97056148  0.39560117     1.02100
Fe2985     Fe  0.55481349  0.60128961  0.36428375     1.65800
Fe2986     Fe  0.58273305  0.66432716  0.35647820     1.73200
Fe2987     Fe  0.56469618  0.62682197  0.29311121     1.54400
O2988       O  0.57612255  0.60017996  0.29253931    -0.82500
O2989       O  0.56245185  0.67560910  0.32897900    -0.80800
O2990       O  0.57222352  0.58595239  0.33971816    -0.85000
O2991       O  0.52221012  0.58181235  0.33977251    -0.79900
O2992       O  0.60181652  0.65355685  0.28636959    -0.81600
O2993       O  0.55432595  0.65407528  0.38865893    -0.84400
C2994       C  0.51358776  0.58321098  0.31406077     0.96400
C2995       C  0.57834021  0.58630157  0.31217125     1.03800
O2996       O  0.56743103  0.63083882  0.33791608    -1.13400
O2997       O  0.60539159  0.65765158  0.38589324    -0.75800
O2998       O  0.58595581  0.61660368  0.39230299    -0.79300
O2999       O  0.52681006  0.59958162  0.29446224    -0.80000
C3000       C  0.60408731  0.63821017  0.39740233     0.95300
O3001       O  0.53536146  0.61281312  0.39157842    -0.77900
O3002       O  0.61289095  0.67846357  0.32666442    -0.83100
C3003       C  0.55323696  0.67040777  0.30237240     0.97900
C3004       C  0.61779856  0.67259642  0.30089756     1.03800
O3005       O  0.55350858  0.65315626  0.28704339    -0.78800
C3006       C  0.53719790  0.63344060  0.39902142     1.02100
C3007       C  0.59751146  0.53788665  0.32290754    -0.02700
C3008       C  0.58251230  0.52093254  0.30029831     0.07000
C3009       C  0.57418426  0.52947022  0.27558226    -0.02800
C3010       C  0.57655635  0.55337545  0.27666713    -0.02800
C3011       C  0.58648995  0.56816092  0.30307681     0.07100
C3012       C  0.59946610  0.56147396  0.32440657    -0.03000
Br3013     Br  0.61921041  0.58416915  0.35633476    -0.01500
Br3014     Br  0.61476169  0.52839613  0.35227823    -0.01600
Br3015     Br  0.56494711  0.56475890  0.24269444    -0.01600
Br3016     Br  0.55796206  0.00788956  0.24148426    -0.01600
C3017       C  0.95789238  0.52599847  0.28077007    -0.02700
C3018       C  0.94214668  0.51788609  0.30662500     0.07000
C3019       C  0.94660301  0.53517925  0.33012589    -0.02800
C3020       C  0.96888997  0.55825380  0.33050271    -0.02800
C3021       C  0.98706357  0.56419223  0.30758126     0.07100
C3022       C  0.98054540  0.54898996  0.28144457    -0.03000
Br3023     Br  0.50320153  0.55854431  0.24740939    -0.01500
Br3024     Br  0.94930145  0.00570768  0.24475609    -0.01600
Br3025     Br  0.97470453  0.58178657  0.36267672    -0.01600
Br3026     Br  0.92202800  0.52747797  0.36178678    -0.01600
C3027       C  0.95342051  0.92930589  0.27043696    -0.02700
C3028       C  0.93664387  0.91743504  0.29467287     0.07000
C3029       C  0.94086283  0.90182596  0.31426449    -0.02800
C3030       C  0.96422123  0.90264294  0.31406140    -0.02800
C3031       C  0.98325187  0.91910188  0.29419138     0.07100
C3032       C  0.97682603  0.93001594  0.27008121    -0.03000
Br3033     Br  0.50058730  0.94798664  0.23831731    -0.01500
Br3034     Br  0.94585953  0.94687627  0.23968073    -0.01600
Br3035     Br  0.97080689  0.88262578  0.34245060    -0.01600
Br3036     Br  0.91516520  0.88067682  0.34261776    -0.01600
C3037       C  0.85835584  0.85549751  0.39801537    -0.02700
C3038       C  0.86448349  0.87881481  0.41026952     0.07000
C3039       C  0.87199070  0.88382659  0.44082505    -0.02800
C3040       C  0.87592801  0.86675119  0.45816424    -0.02800
C3041       C  0.87382940  0.84487722  0.44444474     0.07100
C3042       C  0.86319435  0.83863025  0.41464345    -0.03000
Br3043     Br  0.85542971  0.80762502  0.39506627    -0.01500
Br3044     Br  0.84397775  0.84721388  0.35778224    -0.01600
Br3045     Br  0.88286388  0.87346540  0.50108891    -0.01600
Br3046     Br  0.87669542  0.91437733  0.45876166    -0.01600
C3047       C  0.48835500  0.87899426  0.45704241    -0.02700
C3048       C  0.97442651  0.85350443  0.44906234     0.07000
C3049       C  0.98313699  0.84455813  0.42491875    -0.02800
C3050       C  0.00329912  0.86128581  0.40653110    -0.02800
C3051       C  0.51599678  0.88696633  0.41333095     0.07100
C3052       C  0.50958924  0.89528050  0.43998841    -0.03000
Br3053     Br  0.53054345  0.92901976  0.45395387    -0.01500
Br3054     Br  0.47779500  0.89275341  0.48968167    -0.01600
Br3055     Br  0.01215852  0.84890912  0.37099243    -0.01600
Br3056     Br  0.96820711  0.80925407  0.41746332    -0.01600
C3057       C  0.98351294  0.64123248  0.43069405    -0.02700
C3058       C  0.97585445  0.62472186  0.45579444     0.07000
C3059       C  0.99127101  0.61456320  0.46491239    -0.02800
C3060       C  0.51175549  0.61813317  0.44677059    -0.02800
C3061       C  0.51798259  0.63282075  0.42020930     0.07100
C3062       C  0.50412115  0.64485509  0.41268505    -0.03000
Br3063     Br  0.51111487  0.66384220  0.37557976    -0.01500
Br3064     Br  0.96661768  0.65999625  0.42132457    -0.01600
Br3065     Br  0.53048948  0.60161066  0.45796882    -0.01600
Br3066     Br  0.98483310  0.59506718  0.50168442    -0.01600
C3067       C  0.85441502  0.99013267  0.42377733    -0.02700
C3068       C  0.87361769  0.98375296  0.41929191     0.07000
C3069       C  0.89665255  0.49790800  0.43538004    -0.02800
C3070       C  0.90219510  0.52049765  0.44952302    -0.02800
C3071       C  0.88385853  0.52801847  0.45154838     0.07100
C3072       C  0.85961624  0.51220398  0.43956441    -0.03000
Br3073     Br  0.83329368  0.52065100  0.44503959    -0.01500
Br3074     Br  0.82026077  0.96809109  0.41109992    -0.01600
Br3075     Br  0.93623771  0.54234979  0.46294294    -0.01600
Br3076     Br  0.92059083  0.48612691  0.44103494    -0.01600
C3077       C  0.90716448  0.71506914  0.44646111    -0.02700
C3078       C  0.91971606  0.73166269  0.47071913     0.07000
C3079       C  0.93228390  0.72503070  0.49258634    -0.02800
C3080       C  0.92890463  0.70073788  0.49312321    -0.02800
C3081       C  0.91305729  0.68286241  0.47160767     0.07100
C3082       C  0.90385503  0.69070234  0.44692882    -0.03000
Br3083     Br  0.88465820  0.66747003  0.41534366    -0.01500
Br3084     Br  0.89181842  0.72449175  0.41449285    -0.01600
Br3085     Br  0.94558815  0.69181311  0.52390095     0.01100
Br3086     Br  0.95322414  0.74915071  0.52267311    -0.01600
C3087       C  0.63937126  0.63090347  0.46369816    -0.02700
C3088       C  0.65960219  0.63032479  0.44837779     0.07000
C3089       C  0.66424464  0.63835553  0.41750791    -0.02800
C3090       C  0.64701004  0.64323249  0.40161961    -0.02800
C3091       C  0.62516879  0.64015490  0.41603456     0.07100
C3092       C  0.62225743  0.63560721  0.44738998    -0.03000
Br3093     Br  0.59502718  0.63656807  0.46804815    -0.01500
Br3094     Br  0.63460654  0.62587467  0.50718765    -0.01600
Br3095     Br  0.65250811  0.65307178  0.35936690    -0.01600
Br3096     Br  0.69318485  0.64200110  0.39537040    -0.01600
C3097       C  0.63581242  0.99458406  0.42149181    -0.02700
C3098       C  0.61040945  0.98903812  0.41844546     0.07000
C3099       C  0.60203518  0.00324898  0.43535603    -0.02800
C3100       C  0.61915107  0.52373770  0.45267668    -0.02800
C3101       C  0.64442396  0.52964533  0.45452093     0.07100
C3102       C  0.65261150  0.51471289  0.43971666    -0.03000
Br3103     Br  0.68718927  0.52229735  0.44402618    -0.01500
Br3104     Br  0.64901041  0.97656743  0.39916526    -0.01600
Br3105     Br  0.60851563  0.54540244  0.47145346    -0.01600
Br3106     Br  0.56721914  0.99549463  0.43541991    -0.01600
C3107       C  0.80524967  0.67405738  0.98524641    -0.02700
C3108       C  0.78383616  0.67185987  0.47170686     0.07000
C3109       C  0.78362263  0.69272289  0.45911408    -0.02800
C3110       C  0.80588082  0.71592462  0.45913632    -0.02800
C3111       C  0.82777206  0.71805153  0.47271213     0.07100
C3112       C  0.82697432  0.69712654  0.98631672    -0.03000
Br3113     Br  0.85667757  0.69900146  0.00433249    -0.01500
Br3114     Br  0.80639401  0.64465017  0.99827472    -0.01600
Br3115     Br  0.80595749  0.74489408  0.44278775    -0.01600
Br3116     Br  0.75264909  0.68973860  0.44395752    -0.01600
C3117       C  0.77143826  0.56161294  0.48982700    -0.02700
C3118       C  0.76538258  0.57418858  0.46757241     0.07000
C3119       C  0.78137954  0.58453779  0.44236558    -0.02800
C3120       C  0.80584191  0.58755546  0.44317878    -0.02800
C3121       C  0.81377307  0.57951228  0.46896895     0.07100
C3122       C  0.79551723  0.56403110  0.49033975    -0.03000
Br3123     Br  0.80368194  0.54702521  0.52126328    -0.01500
Br3124     Br  0.74737192  0.54302853  0.52118067    -0.01600
Br3125     Br  0.82868009  0.60480229  0.41042307    -0.01600
Br3126     Br  0.77080039  0.59697919  0.40843375    -0.01600
C3127       C  0.99469892  0.81631278  0.10140139    -0.02700
C3128       C  0.98504021  0.79831309  0.12495554     0.07000
C3129       C  0.95947060  0.78851174  0.13342783    -0.02800
C3130       C  0.94317185  0.79285320  0.11491431    -0.02800
C3131       C  0.95223477  0.80750288  0.08853087     0.07100
C3132       C  0.97823760  0.82048895  0.08284917    -0.03000
Br3133     Br  0.99099980  0.84206141  0.04796426    -0.01500
Br3134     Br  0.53050713  0.83596674  0.09494360    -0.01600
Br3135     Br  0.90774315  0.77740116  0.12448293    -0.01600
Br3136     Br  0.94561761  0.76833738  0.16936463    -0.01600
C3137       C  0.98930686  0.68469900  0.10306170    -0.02700
C3138       C  0.97969811  0.69806869  0.11920656     0.07000
C3139       C  0.95338818  0.68805170  0.12103222    -0.02800
C3140       C  0.93705839  0.66536268  0.10665943    -0.02800
C3141       C  0.94660630  0.65343859  0.08753170     0.07100
C3142       C  0.97295457  0.66290221  0.08664839    -0.03000
Br3143     Br  0.98728345  0.64729275  0.06175228    -0.01500
Br3144     Br  0.52498356  0.69595556  0.10360963    -0.01600
Br3145     Br  0.90131578  0.65060774  0.11411582    -0.01600
Br3146     Br  0.93913999  0.70644681  0.14035287    -0.01600
C3147       C  0.52432831  0.83049531  0.25308039    -0.02700
C3148       C  0.54301945  0.82316430  0.25179482     0.07000
C3149       C  0.56599358  0.83757920  0.26777453    -0.02800
C3150       C  0.57137916  0.86030401  0.28109535    -0.02800
C3151       C  0.55287531  0.86759884  0.28226171     0.07100
C3152       C  0.52912930  0.85235960  0.26876470    -0.03000
Br3153     Br  0.00313258  0.86158815  0.27126689    -0.01500
Br3154     Br  0.99237168  0.81182784  0.23259827    -0.01600
Br3155     Br  0.60553246  0.88290699  0.29386522    -0.01600
Br3156     Br  0.59069566  0.82668503  0.27251964    -0.01600
C3157       C  0.54470936  0.72601482  0.28018063    -0.02700
C3158       C  0.53409398  0.71861061  0.25106249     0.07000
C3159       C  0.52447484  0.69371652  0.24207926    -0.02800
C3160       C  0.52822316  0.67712031  0.26059922    -0.02800
C3161       C  0.54304561  0.68573133  0.28758770     0.07100
C3162       C  0.54969722  0.71001759  0.29826281    -0.03000
Br3163     Br  0.56623289  0.72276759  0.33692023    -0.01500
Br3164     Br  0.55146410  0.75806357  0.29551116    -0.01600
Br3165     Br  0.51178784  0.64245632  0.24875966    -0.01600
Br3166     Br  0.00728055  0.68266604  0.20351478    -0.01600
C3167       C  0.70710864  0.55641446  0.11273323    -0.02700
C3168       C  0.69328760  0.54733392  0.08574242     0.07000
C3169       C  0.68363811  0.52232442  0.07757201    -0.02800
C3170       C  0.68980043  0.50695107  0.09501526    -0.02800
C3171       C  0.70736628  0.51725193  0.11924410     0.07100
C3172       C  0.71524826  0.54197055  0.12874788    -0.03000
Br3173     Br  0.73984301  0.55796159  0.16069324    -0.01500
Br3174     Br  0.71660704  0.58973990  0.12593020    -0.01600
Br3175     Br  0.67399206  0.97198339  0.08516681    -0.01600
Br3176     Br  0.66396358  0.50998327  0.04084929    -0.01600
C3177       C  0.81094675  0.50736478  0.08589271    -0.02700
C3178       C  0.80585415  0.51359001  0.11530319     0.07000
C3179       C  0.82535432  0.53497383  0.12992042    -0.02800
C3180       C  0.84678950  0.55199977  0.11349972    -0.02800
C3181       C  0.84986955  0.54729812  0.08302851     0.07100
C3182       C  0.83304663  0.52409001  0.07019199    -0.03000
Br3183     Br  0.83970262  0.51587000  0.03010352    -0.01500
Br3184     Br  0.78821145  0.97656176  0.06557339    -0.01600
Br3185     Br  0.87269552  0.58159545  0.13288267    -0.01600
Br3186     Br  0.82425932  0.54068855  0.17296965    -0.01600
C3187       C  0.66128919  0.95608756  0.29974679    -0.02700
C3188       C  0.64493158  0.96480879  0.28945491     0.07000
C3189       C  0.65205531  0.98067443  0.26365742    -0.02800
C3190       C  0.67265979  0.98426265  0.24580338    -0.02800
C3191       C  0.68692452  0.97296377  0.25420608     0.07100
C3192       C  0.68210379  0.96012278  0.28198601    -0.03000
Br3193     Br  0.70356053  0.94697522  0.29487285    -0.01500
Br3194     Br  0.65511629  0.93715350  0.33682734    -0.01600
Br3195     Br  0.67957299  0.50238797  0.20802140    -0.01600
Br3196     Br  0.63386268  0.49775941  0.25218679    -0.01600
C3197       C  0.80788144  0.97146420  0.29181060    -0.02700
C3198       C  0.81998488  0.95947564  0.27810265     0.07000
C3199       C  0.81632824  0.95382049  0.24659195    -0.02800
C3200       C  0.80098859  0.96018540  0.22937613    -0.02800
C3201       C  0.78725293  0.96995491  0.24366754     0.07100
C3202       C  0.79102327  0.97613216  0.27471978    -0.03000
Br3203     Br  0.77301696  0.99086441  0.29355764    -0.01500
Br3204     Br  0.81481350  0.98218313  0.33344617    -0.01600
Br3205     Br  0.79834518  0.95527785  0.18586137    -0.01600
Br3206     Br  0.82961640  0.93471493  0.22680356    -0.01600
C3207       C  0.62832327  0.89408998  0.15934104    -0.02700
C3208       C  0.64772655  0.90026796  0.13810406     0.07000
C3209       C  0.64377163  0.88392307  0.11360024    -0.02800
C3210       C  0.62254746  0.85988605  0.11346051    -0.02800
C3211       C  0.60491435  0.85251022  0.13721666     0.07100
C3212       C  0.60685111  0.87035362  0.15869663    -0.03000
Br3213     Br  0.58050315  0.86188306  0.18807332    -0.01500
Br3214     Br  0.63198964  0.91774899  0.19040297    -0.01600
Br3215     Br  0.61941379  0.83615870  0.08299775    -0.01600
Br3216     Br  0.66910191  0.89285064  0.08264320    -0.01600
C3217       C  0.82596916  0.80460942  0.11954291    -0.02700
C3218       C  0.80202482  0.79010474  0.10608118     0.07000
C3219       C  0.80046907  0.78150466  0.07596501    -0.02800
C3220       C  0.82246975  0.78693146  0.05988072    -0.02800
C3221       C  0.84623717  0.80011177  0.07388008     0.07100
C3222       C  0.84800601  0.80937323  0.10357616    -0.03000
Br3223     Br  0.88056681  0.82815450  0.12235714    -0.01500
Br3224     Br  0.82857625  0.81846042  0.15948181    -0.01600
Br3225     Br  0.82008320  0.77610176  0.01835867    -0.01600
Br3226     Br  0.76815542  0.76033983  0.05722672    -0.01600
C3227       C  0.73819833  0.69204454  0.10800995    -0.02700
C3228       C  0.71769397  0.69449684  0.11789019     0.07000
C3229       C  0.69306343  0.67579934  0.11103175    -0.02800
C3230       C  0.68889367  0.65474297  0.09385060    -0.02800
C3231       C  0.70952891  0.65294528  0.08183940     0.07100
C3232       C  0.73436302  0.67189771  0.08946318    -0.03000
Br3233     Br  0.76405336  0.67242063  0.07318520    -0.01500
Br3234     Br  0.77193247  0.71727625  0.11895822    -0.01600
Br3235     Br  0.65479460  0.62817857  0.08845705    -0.01600
Br3236     Br  0.66511612  0.67933350  0.12533909    -0.01600
C3237       C  0.78948319  0.86311971  0.26777406    -0.02700
C3238       C  0.81315118  0.86623690  0.27597711     0.07000
C3239       C  0.81977638  0.84840547  0.26665028    -0.02800
C3240       C  0.80239655  0.82691021  0.25048205    -0.02800
C3241       C  0.77895489  0.82421468  0.24056750     0.07100
C3242       C  0.77303397  0.84310440  0.24903886    -0.03000
Br3243     Br  0.74358515  0.84382881  0.23368698    -0.01500
Br3244     Br  0.77998154  0.88722001  0.28126319    -0.01600
Br3245     Br  0.81087027  0.80094790  0.24402991    -0.01600
Br3246     Br  0.85288224  0.85356477  0.27614422    -0.01600
C3247       C  0.65447010  0.71532577  0.28971202    -0.02700
C3248       C  0.64275099  0.68910913  0.28644867     0.07000
C3249       C  0.65412548  0.67901292  0.26716407    -0.02800
C3250       C  0.67465588  0.69475970  0.24850392    -0.02800
C3251       C  0.68503052  0.72071715  0.25034714     0.07100
C3252       C  0.67583288  0.73086509  0.27232639    -0.03000
Br3253     Br  0.69196630  0.76659888  0.27738482    -0.01500
Br3254     Br  0.64039950  0.73090562  0.31531834    -0.01600
Br3255     Br  0.68694270  0.68073920  0.21833431    -0.01600
Br3256     Br  0.64204245  0.64362666  0.26623399    -0.01600
C3257       C  0.74968756  0.88663336  0.12580303    -0.02700
C3258       C  0.72889513  0.88773296  0.13793991     0.07000
C3259       C  0.70625857  0.86557651  0.14337767    -0.02800
C3260       C  0.70470871  0.84260982  0.13803524    -0.02800
C3261       C  0.72632198  0.84140589  0.12992270     0.07100
C3262       C  0.74863242  0.86334573  0.12266335    -0.03000
Br3263     Br  0.77783491  0.86133924  0.11045071    -0.01500
Br3264     Br  0.77982258  0.91681483  0.11551043    -0.01600
Br3265     Br  0.67305821  0.81262453  0.14415369    -0.01600
Br3266     Br  0.67751834  0.86599428  0.16066598    -0.01600
C3267       C  0.62569032  0.73240195  0.15246981    -0.02700
C3268       C  0.64351534  0.74495902  0.12956935     0.07000
C3269       C  0.63688092  0.75494661  0.10464881    -0.02800
C3270       C  0.61470031  0.75675602  0.10579919    -0.02800
C3271       C  0.59958682  0.74890896  0.13220057     0.07100
C3272       C  0.60370075  0.73426591  0.15377563    -0.03000
Br3273     Br  0.57998397  0.71787043  0.18624657    -0.01500
Br3274     Br  0.63273668  0.71460717  0.18362116    -0.01600
Br3275     Br  0.60659005  0.77176551  0.07236626    -0.01600
Br3276     Br  0.65972532  0.76906004  0.07097108    -0.01600
Fe3277     Fe  0.71050205  0.78186772  0.68671298     1.65800
Fe3278     Fe  0.74834948  0.75711525  0.68276314     1.73200
Fe3279     Fe  0.72486939  0.76871766  0.61783550     1.54400
O3280       O  0.68590748  0.74944229  0.61850601    -0.82500
O3281       O  0.77607070  0.77085860  0.64880553    -0.80800
O3282       O  0.67976499  0.76793863  0.65829161    -0.85000
O3283       O  0.72783952  0.81494683  0.66420093    -0.79900
O3284       O  0.72412846  0.73486575  0.61428733    -0.81600
O3285       O  0.76895045  0.79090077  0.70543075    -0.84400
C3286       C  0.72764188  0.81869215  0.63594651     0.96400
C3287       C  0.67178086  0.75422644  0.63491230     1.03800
O3288       O  0.72780307  0.76894892  0.66223221    -1.13400
O3289       O  0.72273786  0.74113219  0.71959552    -0.75800
O3290       O  0.69201270  0.74969148  0.70997155    -0.79300
O3291       O  0.72485011  0.80262067  0.61596530    -0.80000
C3292       C  0.70087434  0.73832163  0.72493809     0.95300
O3293       O  0.73815180  0.79728697  0.72000061    -0.77900
O3294       O  0.72991921  0.72315162  0.66046762    -0.83100
C3295       C  0.77977285  0.78305756  0.62412013     0.97900
C3296       C  0.72453336  0.71894924  0.63234192     1.03800
O3297       O  0.76339434  0.78772334  0.61274383    -0.78800
C3298       C  0.76102164  0.80278329  0.72134081     1.02100
Fe3299     Fe  0.71513474  0.93262247  0.69491590     1.65800
Fe3300     Fe  0.74666839  0.49503606  0.68536184     1.73200
Fe3301     Fe  0.72549655  0.95686561  0.62405341     1.54400
O3302       O  0.72724935  0.92417136  0.62300263    -0.82500
O3303       O  0.72313828  0.50432631  0.66247277    -0.80800
O3304       O  0.73082675  0.91512954  0.67098601    -0.85000
O3305       O  0.68232888  0.91526188  0.66990408    -0.79900
O3306       O  0.76407991  0.97672845  0.61924718    -0.81600
O3307       O  0.72276418  0.98707514  0.72254958    -0.84400
C3308       C  0.67339793  0.91872983  0.64536984     0.96400
C3309       C  0.73012518  0.91087858  0.64279358     1.03800
O3310       O  0.72907330  0.96138929  0.66828577    -1.13400
O3311       O  0.77084280  0.48748048  0.71011913    -0.75800
O3312       O  0.74651980  0.94740439  0.72251034    -0.79300
O3313       O  0.68658968  0.93600492  0.62669097    -0.80000
C3314       C  0.76691423  0.96794405  0.72423616     0.95300
O3315       O  0.69753060  0.94616542  0.72175318    -0.77900
O3316       O  0.77336136  0.50826266  0.65028959    -0.83100
C3317       C  0.71809546  0.50241723  0.63439577     0.97900
C3318       C  0.77948649  0.49826854  0.62897986     1.03800
O3319       O  0.72240047  0.98850523  0.61711469    -0.78800
C3320       C  0.70363186  0.96749360  0.73196861     1.02100
Fe3321     Fe  0.57191214  0.78383407  0.69284028     1.65800
Fe3322     Fe  0.00808762  0.75555039  0.68774366     1.73200
Fe3323     Fe  0.54412870  0.77386266  0.62273001     1.54400
O3324       O  0.57128194  0.81148841  0.62413648    -0.82500
O3325       O  0.99315239  0.72600780  0.65759244    -0.80800
O3326       O  0.59045612  0.81644260  0.66870473    -0.85000
O3327       O  0.58677196  0.76659911  0.66694688    -0.79900
O3328       O  0.51752039  0.78519257  0.61876610    -0.81600
O3329       O  0.51572908  0.73333351  0.71625069    -0.84400
C3330       C  0.58518182  0.75978927  0.63947119     0.96400
C3331       C  0.58769133  0.82500397  0.64369735     1.03800
O3332       O  0.54132891  0.77093418  0.66770835    -1.13400
O3333       O  0.51895634  0.78327897  0.72046855    -0.75800
O3334       O  0.56064297  0.80292490  0.72079432    -0.79300
O3335       O  0.57092260  0.76224707  0.62033311    -0.80000
C3336       C  0.53998299  0.80077912  0.72960855     0.95300
O3337       O  0.55738189  0.75312701  0.72117181    -0.77900
O3338       O  0.99611763  0.77579095  0.66182841    -0.83100
C3339       C  0.99808439  0.72131279  0.63117644     0.97900
C3340       C  0.00072557  0.78536027  0.63550925     1.03800
O3341       O  0.51682296  0.73709797  0.61594331    -0.78800
C3342       C  0.53575353  0.73520817  0.72741091     1.02100
Fe3343     Fe  0.73726441  0.61071873  0.52872067     1.65800
Fe3344     Fe  0.67547580  0.58964173  0.52038691     1.73200
Fe3345     Fe  0.71277160  0.60276550  0.95784906     1.54400
O3346       O  0.74684662  0.63529941  0.96019534    -0.82500
O3347       O  0.66025806  0.55615183  0.99447592    -0.80800
O3348       O  0.75660002  0.64413088  0.50737044    -0.85000
O3349       O  0.75308393  0.59533882  0.50115136    -0.79900
O3350       O  0.69555636  0.62416033  0.95333052    -0.81600
O3351       O  0.68150184  0.57181663  0.55724899    -0.84400
C3352       C  0.74836298  0.58446534  0.97665442     0.96400
C3353       C  0.75954928  0.64951471  0.98181794     1.03800
O3354       O  0.70846978  0.60074488  0.50223504    -1.13400
O3355       O  0.68885049  0.62274485  0.54457624    -0.75800
O3356       O  0.72537230  0.62737755  0.56059477    -0.79300
O3357       O  0.73110268  0.58209313  0.95858215    -0.80000
C3358       C  0.70840233  0.63357055  0.56122285     0.95300
O3359       O  0.72038137  0.57807181  0.55141652    -0.77900
O3360       O  0.66315431  0.60453509  0.98422626    -0.83100
C3361       C  0.66291127  0.55321774  0.96636268     0.97900
C3362       C  0.67409878  0.61961498  0.96255554     1.03800
O3363       O  0.67954287  0.57017786  0.94981922    -0.78800
C3364       C  0.69905572  0.56717084  0.56381049     1.02100
Fe3365     Fe  0.87964285  0.61556744  0.52846332     1.65800
Fe3366     Fe  0.91520277  0.58725069  0.52259543     1.73200
Fe3367     Fe  0.89537047  0.60428423  0.95903677     1.54400
O3368       O  0.85721092  0.59368857  0.95840168    -0.82500
O3369       O  0.94771873  0.60960206  0.99753860    -0.80800
O3370       O  0.84677330  0.59729869  0.50441378    -0.85000
O3371       O  0.89224295  0.64763788  0.50303211    -0.79900
O3372       O  0.88479473  0.56708305  0.95357277    -0.81600
O3373       O  0.93136507  0.61443974  0.55661204    -0.84400
C3374       C  0.90336720  0.65610064  0.97820810     0.96400
C3375       C  0.84106373  0.59087712  0.97842540     1.03800
O3376       O  0.89661318  0.60219171  0.50297701    -1.13400
O3377       O  0.88516017  0.56405628  0.54996340    -0.75800
O3378       O  0.86495372  0.58536496  0.55782193    -0.79300
O3379       O  0.90659379  0.64231721  0.95928401    -0.80000
C3380       C  0.86774390  0.56651928  0.56231147     0.95300
O3381       O  0.91074457  0.63556946  0.55473771    -0.77900
O3382       O  0.90289528  0.55876774  0.99248399    -0.83100
C3383       C  0.95074411  0.61572927  0.96968617     0.97900
C3384       C  0.89081943  0.55267079  0.96738931     1.03800
O3385       O  0.93266719  0.61366391  0.95324875    -0.78800
C3386       C  0.92855816  0.63269596  0.56475329     1.02100
Fe3387     Fe  0.88766543  0.76695581  0.52921796     1.65800
Fe3388     Fe  0.91527144  0.82882961  0.51687974     1.73200
Fe3389     Fe  0.89666772  0.78859393  0.95801617     1.54400
O3390       O  0.91508572  0.76775377  0.95997820    -0.82500
O3391       O  0.90027405  0.84077951  0.98169200    -0.80800
O3392       O  0.90278966  0.74928105  0.50393347    -0.85000
O3393       O  0.85406768  0.74791761  0.50740061    -0.79900
O3394       O  0.93078815  0.82038254  0.94895530    -0.81600
O3395       O  0.88335764  0.82043301  0.54223533    -0.84400
C3396       C  0.84857477  0.74267459  0.98186326     0.96400
C3397       C  0.91236508  0.75126519  0.97935604     1.03800
O3398       O  0.90028602  0.79478160  0.50105009    -1.13400
O3399       O  0.93310015  0.82272548  0.55411155    -0.75800
O3400       O  0.91980610  0.78217015  0.55403807    -0.79300
O3401       O  0.86272627  0.75557813  0.96032666    -0.80000
C3402       C  0.93417778  0.80383217  0.56373202     0.95300
O3403       O  0.87059835  0.78143358  0.55724653    -0.77900
O3404       O  0.94701342  0.83844982  0.99327603    -0.83100
C3405       C  0.88403474  0.83026116  0.96069910     0.97900
C3406       C  0.94922016  0.83584500  0.96503662     1.03800
O3407       O  0.87722622  0.80808389  0.95266312    -0.78800
C3408       C  0.86873684  0.80109002  0.55733955     1.02100
Fe3409     Fe  0.90470150  0.94850433  0.85878080     1.65800
Fe3410     Fe  0.84095036  0.92200382  0.85043448     1.73200
Fe3411     Fe  0.87984212  0.94036173  0.78758697     1.54400
O3412       O  0.90896922  0.97706662  0.78979721    -0.82500
O3413       O  0.82631736  0.89211750  0.82043627    -0.80800
O3414       O  0.92366438  0.98219910  0.83702725    -0.85000
O3415       O  0.92146095  0.93340528  0.83218623    -0.79900
O3416       O  0.85596881  0.95433284  0.78274480    -0.81600
O3417       O  0.84764917  0.89990162  0.88097696    -0.84400
C3418       C  0.91970076  0.92587018  0.80503842     0.96400
C3419       C  0.92364123  0.99061893  0.81074660     1.03800
O3420       O  0.87504878  0.93684139  0.83219996    -1.13400
O3421       O  0.85141416  0.95061268  0.88282950    -0.75800
O3422       O  0.89223246  0.96554340  0.88872594    -0.79300
O3423       O  0.90445361  0.92653507  0.78605303    -0.80000
C3424       C  0.87210962  0.96536490  0.89596230     0.95300
O3425       O  0.88925138  0.91617856  0.88379065    -0.77900
O3426       O  0.82878935  0.94062282  0.82115975    -0.83100
C3427       C  0.83153555  0.88860278  0.79352689     0.97900
C3428       C  0.83604360  0.95111517  0.79538347     1.03800
O3429       O  0.85085577  0.90452523  0.77925751    -0.78800
C3430       C  0.86715372  0.89960269  0.89065889     1.02100
Fe3431     Fe  0.54654474  0.95183092  0.85661797     1.65800
Fe3432     Fe  0.58133335  0.92276172  0.85433630     1.73200
Fe3433     Fe  0.56472993  0.94064982  0.78791871     1.54400
O3434       O  0.52700763  0.93119764  0.78442872    -0.82500
O3435       O  0.61410956  0.94314431  0.82993491    -0.80800
O3436       O  0.51474793  0.93363880  0.83123957    -0.85000
O3437       O  0.56018733  0.98358482  0.83080237    -0.79900
O3438       O  0.55359648  0.90360627  0.78250206    -0.81600
O3439       O  0.59675735  0.95001272  0.88802947    -0.84400
C3440       C  0.57298600  0.99203150  0.80675780     0.96400
C3441       C  0.51006809  0.92792405  0.80349210     1.03800
O3442       O  0.56417287  0.93831283  0.83290880    -1.13400
O3443       O  0.55084815  0.90051319  0.88131182    -0.75800
O3444       O  0.53074343  0.92211418  0.88618136    -0.79300
O3445       O  0.57701378  0.97852938  0.78844294    -0.80000
C3446       C  0.53347431  0.90353963  0.89256798     0.95300
O3447       O  0.57666073  0.97155908  0.88413762    -0.77900
O3448       O  0.56757223  0.89349698  0.82368741    -0.83100
C3449       C  0.61874776  0.95056046  0.80262059     0.97900
C3450       C  0.55699702  0.88807847  0.79776243     1.03800
O3451       O  0.60187986  0.94949351  0.78480728    -0.78800
C3452       C  0.59382684  0.96832130  0.89550064     1.02100
Fe3453     Fe  0.55522392  0.59980919  0.86399073     1.65800
Fe3454     Fe  0.58213949  0.66265838  0.85504930     1.73200
Fe3455     Fe  0.56573029  0.62469169  0.79227952     1.54400
O3456       O  0.57776444  0.59852822  0.79267959    -0.82500
O3457       O  0.56131530  0.67260793  0.82695882    -0.80800
O3458       O  0.57229553  0.58391843  0.83976320    -0.85000
O3459       O  0.52250546  0.58032298  0.83965643    -0.79900
O3460       O  0.60275261  0.65187742  0.78574168    -0.81600
O3461       O  0.55357410  0.65230476  0.88700922    -0.84400
C3462       C  0.51434914  0.58135563  0.81346102     0.96400
C3463       C  0.57918602  0.58437548  0.81255216     1.03800
O3464       O  0.56775380  0.62906575  0.83706372    -1.13400
O3465       O  0.60511478  0.65690685  0.88485484    -0.75800
O3466       O  0.58677098  0.61583461  0.89131775    -0.79300
O3467       O  0.52802478  0.59712585  0.79352935    -0.80000
C3468       C  0.60448090  0.63773165  0.89625689     0.95300
O3469       O  0.53576634  0.61126773  0.89156535    -0.77900
O3470       O  0.61236249  0.67744613  0.82530197    -0.83100
C3471       C  0.55280707  0.66736569  0.80007594     0.97900
C3472       C  0.61785330  0.67159804  0.79986885     1.03800
O3473       O  0.55398141  0.65047913  0.78500613    -0.78800
C3474       C  0.53695822  0.63176609  0.89813502     1.02100
C3475       C  0.59788723  0.53564795  0.82452549    -0.02700
C3476       C  0.58372156  0.51897426  0.80123540     0.07000
C3477       C  0.57628335  0.52787313  0.77603745    -0.02800
C3478       C  0.57828390  0.55163660  0.77727920    -0.02800
C3479       C  0.58735076  0.56609748  0.80409598     0.07100
C3480       C  0.59966314  0.55915684  0.82607509    -0.03000
Br3481     Br  0.61823100  0.58134580  0.85898333    -0.01500
Br3482     Br  0.61438056  0.52593568  0.85465827    -0.01600
Br3483     Br  0.56710683  0.56312631  0.74298471    -0.01600
Br3484     Br  0.56199885  0.00703603  0.74085830    -0.01600
C3485       C  0.95803890  0.52500665  0.77951971    -0.02700
C3486       C  0.94211346  0.51729914  0.80518001     0.07000
C3487       C  0.94664463  0.53474713  0.82843497    -0.02800
C3488       C  0.96934510  0.55739757  0.82913261    -0.02800
C3489       C  0.98777493  0.56269319  0.80670097     0.07100
C3490       C  0.98117480  0.54748023  0.78054299    -0.03000
Br3491     Br  0.50430154  0.55607540  0.74713234    -0.01500
Br3492     Br  0.94875975  0.00501131  0.74325806    -0.01600
Br3493     Br  0.97528738  0.58109338  0.86110470    -0.01600
Br3494     Br  0.92153633  0.52770201  0.85923367    -0.01600
C3495       C  0.95416101  0.92931545  0.77117323    -0.02700
C3496       C  0.93741893  0.91738464  0.79544669     0.07000
C3497       C  0.94154902  0.90154062  0.81473943    -0.02800
C3498       C  0.96453119  0.90159626  0.81360996    -0.02800
C3499       C  0.98366023  0.91818258  0.79396345     0.07100
C3500       C  0.97757404  0.93003090  0.77066934    -0.03000
Br3501     Br  0.50201391  0.94957860  0.74027492    -0.01500
Br3502     Br  0.94644561  0.94676438  0.74040827    -0.01600
Br3503     Br  0.97066352  0.88043529  0.84056789    -0.01600
Br3504     Br  0.91634982  0.88104133  0.84395314    -0.01600
C3505       C  0.85960001  0.85621505  0.89756055    -0.02700
C3506       C  0.86467006  0.87903536  0.91043197     0.07000
C3507       C  0.87097153  0.88341687  0.94136085    -0.02800
C3508       C  0.87482986  0.86625998  0.95859971    -0.02800
C3509       C  0.87386912  0.84504974  0.94445150     0.07100
C3510       C  0.86472731  0.83949204  0.91398613    -0.03000
Br3511     Br  0.86023125  0.81006576  0.89298435    -0.01500
Br3512     Br  0.84598542  0.84830561  0.85695947    -0.01600
Br3513     Br  0.88027558  0.87190147  0.00185037    -0.01600
Br3514     Br  0.87390766  0.91306005  0.95993147    -0.01600
C3515       C  0.48896811  0.87709195  0.95884185    -0.02700
C3516       C  0.97370457  0.85200540  0.94975835     0.07000
C3517       C  0.98133845  0.84297015  0.92457304    -0.02800
C3518       C  0.00173007  0.85950359  0.90637187    -0.02800
C3519       C  0.51536034  0.88492798  0.91404941     0.07100
C3520       C  0.51007054  0.89310955  0.94149420    -0.03000
Br3521     Br  0.53249580  0.92626597  0.95598932    -0.01500
Br3522     Br  0.48070423  0.89090503  0.99357244    -0.01600
Br3523     Br  0.00999598  0.84736315  0.87012777    -0.01600
Br3524     Br  0.96465849  0.80784049  0.91521023    -0.01600
C3525       C  0.98240342  0.63892182  0.92821832    -0.02700
C3526       C  0.97577956  0.62412196  0.95492501     0.07000
C3527       C  0.99180229  0.61483506  0.96482581    -0.02800
C3528       C  0.51226275  0.61816109  0.94674342    -0.02800
C3529       C  0.51749901  0.63118041  0.91894718     0.07100
C3530       C  0.50254308  0.64167114  0.90990861    -0.03000
Br3531     Br  0.50737829  0.65706791  0.87042641    -0.01500
Br3532     Br  0.96469908  0.65647375  0.91663382    -0.01600
Br3533     Br  0.53255397  0.60376404  0.95977159    -0.01600
Br3534     Br  0.98608467  0.59661334  0.00252750    -0.01600
C3535       C  0.85516464  0.99108306  0.92337508    -0.02700
C3536       C  0.87409785  0.98427019  0.91949803     0.07000
C3537       C  0.89659840  0.49757787  0.93683800    -0.02800
C3538       C  0.90204000  0.51979412  0.95208345    -0.02800
C3539       C  0.88422966  0.52812272  0.95299844     0.07100
C3540       C  0.86036916  0.51303033  0.93950854    -0.03000
Br3541     Br  0.83433259  0.52207040  0.94355260    -0.01500
Br3542     Br  0.82126437  0.96972847  0.90938163    -0.01600
Br3543     Br  0.93524689  0.53977855  0.96918538    -0.01600
Br3544     Br  0.91962603  0.48474046  0.94281129    -0.01600
C3545       C  0.90610171  0.71494274  0.94733379    -0.02700
C3546       C  0.91870289  0.73149830  0.97161318     0.07000
C3547       C  0.93162408  0.72499086  0.99314356    -0.02800
C3548       C  0.92882802  0.70092073  0.99310248    -0.02800
C3549       C  0.91280633  0.68298409  0.97178028     0.07100
C3550       C  0.90295565  0.69063762  0.94760609    -0.03000
Br3551     Br  0.88309916  0.66722287  0.91653296    -0.01500
Br3552     Br  0.89069232  0.72439271  0.91545460    -0.01600
Br3553     Br  0.94654186  0.69229554  0.02281257     0.01100
Br3554     Br  0.95226653  0.74889245  0.02358761    -0.01600
C3555       C  0.64151646  0.63350772  0.96244235    -0.02700
C3556       C  0.66047740  0.63101607  0.94681355     0.07000
C3557       C  0.66424463  0.63721594  0.91539213    -0.02800
C3558       C  0.64708520  0.64215916  0.89953423    -0.02800
C3559       C  0.62597336  0.64040629  0.91446324     0.07100
C3560       C  0.62410831  0.63771978  0.94612909    -0.03000
Br3561     Br  0.59778504  0.64014977  0.96703157    -0.01500
Br3562     Br  0.63931321  0.63190980  0.00627479    -0.01600
Br3563     Br  0.65165193  0.65030460  0.85680422    -0.01600
Br3564     Br  0.69151628  0.63769450  0.89258843    -0.01600
C3565       C  0.63733095  0.99530299  0.91734716    -0.02700
C3566       C  0.61126544  0.98748130  0.91739914     0.07000
C3567       C  0.60239690  0.00049955  0.93581039    -0.02800
C3568       C  0.61937601  0.52167104  0.95221809    -0.02800
C3569       C  0.64520838  0.52958499  0.95158077     0.07100
C3570       C  0.65413456  0.51614248  0.93462446    -0.03000
Br3571     Br  0.68960241  0.52657787  0.93457121    -0.01500
Br3572     Br  0.65104620  0.97945869  0.89166940    -0.01600
Br3573     Br  0.60740665  0.54151803  0.97297779    -0.01600
Br3574     Br  0.56703742  0.99034079  0.93880473    -0.01600
C3575       C  0.80647234  0.67345447  0.48150694    -0.02700
C3576       C  0.78267416  0.67239039  0.97513003     0.07000
C3577       C  0.78241726  0.69311959  0.96217679    -0.02800
C3578       C  0.80468571  0.71629560  0.96188381    -0.02800
C3579       C  0.82659312  0.71848067  0.97552875     0.07100
C3580       C  0.82817606  0.69657443  0.48301461    -0.03000
Br3581     Br  0.85769753  0.69833422  0.50138240    -0.01500
Br3582     Br  0.80760372  0.64388235  0.49386919    -0.01600
Br3583     Br  0.80477762  0.74501969  0.94462895    -0.01600
Br3584     Br  0.75139497  0.68992608  0.94675655    -0.01600
C3585       C  0.77157668  0.56260193  0.99105179    -0.02700
C3586       C  0.76574508  0.57519925  0.96860761     0.07000
C3587       C  0.78192550  0.58551351  0.94355659    -0.02800
C3588       C  0.80622157  0.58812766  0.94448777    -0.02800
C3589       C  0.81398754  0.58011211  0.97045923     0.07100
C3590       C  0.79564497  0.56500578  0.99200150    -0.03000
Br3591     Br  0.80360827  0.54853656  0.02385080    -0.01500
Br3592     Br  0.74705122  0.54377249  0.02188002    -0.01600
Br3593     Br  0.82908454  0.60477003  0.91154177    -0.01600
Br3594     Br  0.77183056  0.59838099  0.90960229    -0.01600
C3595       C  0.99477626  0.81392173  0.59916611    -0.02700
C3596       C  0.98514381  0.79595773  0.62283475     0.07000
C3597       C  0.95960679  0.78628822  0.63149659    -0.02800
C3598       C  0.94342719  0.79122534  0.61354216    -0.02800
C3599       C  0.95245403  0.80605180  0.58728382     0.07100
C3600       C  0.97835506  0.81847963  0.58105795    -0.03000
Br3601     Br  0.99094846  0.83969426  0.54581322    -0.01500
Br3602     Br  0.53050064  0.83297617  0.59154081    -0.01600
Br3603     Br  0.90812638  0.77631481  0.62367386    -0.01600
Br3604     Br  0.94545336  0.76524467  0.66674652    -0.01600
C3605       C  0.98980146  0.68368895  0.59960232    -0.02700
C3606       C  0.98060795  0.69670034  0.61719482     0.07000
C3607       C  0.95432491  0.68641980  0.62057568    -0.02800
C3608       C  0.93762554  0.66388212  0.60622527    -0.02800
C3609       C  0.94666577  0.65223244  0.58601254     0.07100
C3610       C  0.97298119  0.66196997  0.58343205    -0.03000
Br3611     Br  0.98655092  0.64700857  0.55624540    -0.01500
Br3612     Br  0.52551291  0.69523724  0.59793011    -0.01600
Br3613     Br  0.90205287  0.64905175  0.61485811    -0.01600
Br3614     Br  0.94038903  0.70411719  0.64225085    -0.01600
C3615       C  0.52588809  0.83135665  0.74516944    -0.02700
C3616       C  0.54103954  0.82025520  0.75050540     0.07000
C3617       C  0.55935141  0.82987191  0.77386110    -0.02800
C3618       C  0.56272865  0.85035595  0.79136316    -0.02800
C3619       C  0.54940275  0.86314281  0.78402548     0.07100
C3620       C  0.53022538  0.85281864  0.76145749    -0.03000
Br3621     Br  0.00917103  0.86743518  0.75236028    -0.01500
Br3622     Br  0.00059791  0.81893592  0.71344912    -0.01600
Br3623     Br  0.58653393  0.86047533  0.82476499    -0.01600
Br3624     Br  0.58129651  0.81609605  0.78148587    -0.01600
C3625       C  0.54326323  0.72227977  0.77839671    -0.02700
C3626       C  0.53428188  0.71580662  0.74852417     0.07000
C3627       C  0.52571556  0.69134701  0.73843863    -0.02800
C3628       C  0.52930153  0.67449854  0.75669120    -0.02800
C3629       C  0.54260483  0.68244826  0.78481664     0.07100
C3630       C  0.54785368  0.70606861  0.79646996    -0.03000
Br3631     Br  0.56176083  0.71766183  0.83665305    -0.01500
Br3632     Br  0.54792843  0.75310283  0.79498969    -0.01600
Br3633     Br  0.51472932  0.64043037  0.74285464    -0.01600
Br3634     Br  0.00969985  0.68119754  0.69908406    -0.01600
C3635       C  0.70947126  0.55755415  0.61411620    -0.02700
C3636       C  0.69563776  0.54885993  0.58704431     0.07000
C3637       C  0.68520841  0.52377958  0.57876779    -0.02800
C3638       C  0.69042642  0.50781299  0.59629865    -0.02800
C3639       C  0.70770235  0.51748016  0.62084658     0.07100
C3640       C  0.71638792  0.54230024  0.63049436    -0.03000
Br3641     Br  0.74041190  0.55713416  0.66325915    -0.01500
Br3642     Br  0.72063805  0.59131709  0.62700241    -0.01600
Br3643     Br  0.67389407  0.97290022  0.58606894    -0.01600
Br3644     Br  0.66607305  0.51211167  0.54156714    -0.01600
C3645       C  0.81013478  0.50643299  0.58496364    -0.02700
C3646       C  0.80499322  0.51286169  0.61424289     0.07000
C3647       C  0.82448423  0.53434187  0.62873603    -0.02800
C3648       C  0.84595592  0.55121411  0.61226518    -0.02800
C3649       C  0.84900676  0.54634996  0.58186644     0.07100
C3650       C  0.83230572  0.52300282  0.56929198    -0.03000
Br3651     Br  0.83939281  0.51421780  0.52978118    -0.01500
Br3652     Br  0.78743159  0.97557045  0.56476597    -0.01600
Br3653     Br  0.87215623  0.58065303  0.63156655    -0.01600
Br3654     Br  0.82335564  0.54048744  0.67165187    -0.01600
C3655       C  0.65847549  0.94773094  0.79752326    -0.02700
C3656       C  0.64445259  0.95974221  0.79010797     0.07000
C3657       C  0.65383019  0.97859484  0.76761289    -0.02800
C3658       C  0.67464330  0.98270556  0.74978587    -0.02800
C3659       C  0.68693753  0.96883723  0.75523781     0.07100
C3660       C  0.67983667  0.95261819  0.78036917    -0.03000
Br3661     Br  0.69905987  0.93633614  0.79058039    -0.01500
Br3662     Br  0.64773710  0.92275222  0.82903287    -0.01600
Br3663     Br  0.68445130  0.50543099  0.71589953    -0.01600
Br3664     Br  0.63825233  0.49892664  0.76079476    -0.01600
C3665       C  0.80705880  0.96948525  0.79050772    -0.02700
C3666       C  0.81982415  0.95797453  0.77726594     0.07000
C3667       C  0.81639796  0.95194546  0.74581703    -0.02800
C3668       C  0.80114536  0.95805964  0.72806538    -0.02800
C3669       C  0.78732010  0.96797009  0.74177514     0.07100
C3670       C  0.79037669  0.97395375  0.77285108    -0.03000
Br3671     Br  0.77114301  0.98766562  0.79104659    -0.01500
Br3672     Br  0.81230581  0.97937437  0.83244890    -0.01600
Br3673     Br  0.79849830  0.95230131  0.68470917    -0.01600
Br3674     Br  0.82956343  0.93235861  0.72692214    -0.01600
C3675       C  0.62883218  0.89314002  0.66127814    -0.02700
C3676       C  0.64700194  0.90012332  0.63820813     0.07000
C3677       C  0.64171250  0.88458928  0.61252585    -0.02800
C3678       C  0.62070578  0.86037219  0.61268563    -0.02800
C3679       C  0.60464173  0.85199880  0.63813370     0.07100
C3680       C  0.60759718  0.86925423  0.66108326    -0.03000
Br3681     Br  0.58298272  0.86000674  0.69292199    -0.01500
Br3682     Br  0.63409627  0.91584691  0.69430826    -0.01600
Br3683     Br  0.61592502  0.83791918  0.57979941    -0.01600
Br3684     Br  0.66511967  0.89492061  0.57914770    -0.01600
C3685       C  0.82728834  0.80443830  0.61985042    -0.02700
C3686       C  0.80321787  0.79046047  0.60649681     0.07000
C3687       C  0.80136995  0.78250188  0.57597826    -0.02800
C3688       C  0.82314074  0.78748839  0.55966255    -0.02800
C3689       C  0.84696709  0.80002640  0.57359026     0.07100
C3690       C  0.84911835  0.80922989  0.60338392    -0.03000
Br3691     Br  0.88196351  0.82836849  0.62136493    -0.01500
Br3692     Br  0.83038890  0.81766433  0.66025240    -0.01600
Br3693     Br  0.82043207  0.77714166  0.51781546    -0.01600
Br3694     Br  0.76893298  0.76304664  0.55669743    -0.01600
C3695       C  0.74081317  0.69416878  0.60659623    -0.02700
C3696       C  0.72022885  0.69531153  0.61887450     0.07000
C3697       C  0.69573061  0.67552933  0.61418862    -0.02800
C3698       C  0.69173643  0.65479320  0.59648890    -0.02800
C3699       C  0.71226861  0.65446289  0.58183910     0.07100
C3700       C  0.73696814  0.67451871  0.58719837    -0.03000
Br3701     Br  0.76605966  0.67731315  0.56622527    -0.01500
Br3702     Br  0.77454956  0.72008659  0.61614357    -0.01600
Br3703     Br  0.65816683  0.62677616  0.59367413    -0.01600
Br3704     Br  0.66777729  0.67716469  0.63212909    -0.01600
C3705       C  0.78935852  0.86252503  0.76981259    -0.02700
C3706       C  0.81324159  0.86575017  0.77710228     0.07000
C3707       C  0.81978111  0.84799776  0.76721641    -0.02800
C3708       C  0.80223623  0.82661116  0.75108479    -0.02800
C3709       C  0.77867922  0.82396140  0.74172707     0.07100
C3710       C  0.77250770  0.84240917  0.75148592    -0.03000
Br3711     Br  0.74178142  0.84208757  0.73926749    -0.01500
Br3712     Br  0.78022260  0.88683036  0.78362679    -0.01600
Br3713     Br  0.81056036  0.80055537  0.74432020    -0.01600
Br3714     Br  0.85301865  0.85309874  0.77578005    -0.01600
C3715       C  0.65097039  0.71503333  0.78552385    -0.02700
C3716       C  0.64232787  0.68912929  0.78524626     0.07000
C3717       C  0.65621036  0.68015491  0.76881378    -0.02800
C3718       C  0.67674028  0.69642064  0.75044203    -0.02800
C3719       C  0.68441262  0.72198062  0.74957508     0.07100
C3720       C  0.67235098  0.73132832  0.76866518    -0.03000
Br3721     Br  0.68467277  0.76681813  0.77096447    -0.01500
Br3722     Br  0.63221336  0.72858353  0.80580237    -0.01600
Br3723     Br  0.69276631  0.68327900  0.72438801    -0.01600
Br3724     Br  0.64731933  0.64556193  0.77127136    -0.01600
C3725       C  0.75036950  0.88669905  0.62262181    -0.02700
C3726       C  0.72908830  0.88754764  0.63344380     0.07000
C3727       C  0.70644824  0.86528776  0.63821124    -0.02800
C3728       C  0.70539179  0.84244230  0.63394149    -0.02800
C3729       C  0.72739664  0.84150924  0.62733246     0.07100
C3730       C  0.74973017  0.86355056  0.62040942    -0.03000
Br3731     Br  0.77949882  0.86192121  0.61005018    -0.01500
Br3732     Br  0.78044584  0.91703268  0.61262492    -0.01600
Br3733     Br  0.67387540  0.81237410  0.63994795    -0.01600
Br3734     Br  0.67707561  0.86541248  0.65368534    -0.01600
C3735       C  0.62697792  0.73175717  0.64943554    -0.02700
C3736       C  0.64511489  0.74487825  0.62705441     0.07000
C3737       C  0.63895445  0.75575961  0.60270622    -0.02800
C3738       C  0.61711519  0.75813644  0.60430696    -0.02800
C3739       C  0.60146981  0.74925540  0.63020781     0.07100
C3740       C  0.60501530  0.73366952  0.65081256    -0.03000
Br3741     Br  0.58041722  0.71592386  0.68193067    -0.01500
Br3742     Br  0.63361004  0.71322129  0.67993847    -0.01600
Br3743     Br  0.61052464  0.77573874  0.57261654    -0.01600
Br3744     Br  0.66220798  0.77040650  0.56948291    -0.01600
loop_ 
_geom_bond_atom_site_label_1 
_geom_bond_atom_site_label_2 
_geom_bond_distance 
_geom_bond_site_symmetry_2 
_ccdc_geom_bond_type 
Fe1          O17   2.075       .  S
Fe1           O7   2.033       .  S
Fe1          O14   2.018       .  S
Fe1           O6   2.054       .  S
Fe1          O12   1.942       .  S
Fe2           O5   2.092       .  S
Fe2           O9   2.092       .  S
Fe2          O13   2.126       .  S
Fe2          O18   2.079       .  S
Fe2          O12   1.956       .  S
Fe3          O21   2.068       .  S
Fe3           O8   2.074       .  S
Fe3          O15   2.097       .  S
Fe3           O4   2.074       .  S
Fe3          O12   1.967       .  S
O4           C11   1.267       .  A
O5           C19   1.274       .  A
O6           C11   1.267       .  A
O7           C10   1.265       .  A
O8           C20   1.273       .  A
O9           C22   1.271       .  A
C10          O15   1.274       .  A
C10         C453   1.466       .  S
C11         C460   1.478       .  S
O13          C16   1.280       .  A
O14          C16   1.260       .  A
C16         C443   1.483       .  S
O17          C22   1.266       .  A
O18          C20   1.275       .  A
C19          O21   1.271       .  A
C19         C410   1.490       .  S
C20         C420   1.477       .  S
C22         C433   1.514       .  S
Fe23         O39   2.037       .  S
Fe23         O29   2.067       .  S
Fe23         O36   2.070       .  S
Fe23         O28   2.054       .  S
Fe23         O34   1.948       .  S
Fe24         O27   2.050   1_565  S
Fe24         O35   2.064       .  S
Fe24         O40   2.097   1_565  S
Fe24        O967   2.082       .  S
Fe24        O970   1.963       .  S
Fe25         O43   2.078       .  S
Fe25         O30   2.068       .  S
Fe25         O37   2.074       .  S
Fe25         O26   2.072       .  S
Fe25         O34   1.967       .  S
O26          C33   1.266       .  A
O27          C41   1.264       .  A
O28          C33   1.266       .  A
O29          C32   1.273       .  A
O30         C978   1.268       .  A
O31        Fe960   2.082       .  S
O31          C44   1.269       .  A
C32          O37   1.272       .  A
C32         C400   1.482       .  S
C33         C450   1.471       .  S
O34        Fe960   1.963       .  S
O35         C974   1.271       .  A
O36          C38   1.272       .  A
C38         O971   1.271       .  A
C38         C393   1.468       .  S
O39          C44   1.262       .  A
O40          C42   1.275   1_545  A
C41         O979   1.270   1_545  A
C41         C363   1.486       .  S
C42         O966   1.268       .  A
C42         C370   1.512   1_565  S
O43         C977   1.270       .  A
C44         C383   1.474       .  S
Fe45         O61   2.068       .  S
Fe45         O51   2.043       .  S
Fe45         O58   2.029       .  S
Fe45         O50   2.054       .  S
Fe45         O56   1.962       .  S
Fe46         O49   2.082       .  S
Fe46         O62   2.069       .  S
Fe46       O1925   2.071       .  S
Fe46       O1929   2.090       .  S
Fe46       O1928   1.979       .  S
Fe47         O65   2.067       .  S
Fe47         O52   2.074       .  S
Fe47         O59   2.093       .  S
Fe47         O48   2.085       .  S
Fe47         O56   1.985       .  S
O48          C55   1.270       .  A
O49          C63   1.273       .  A
O50          C55   1.265       .  A
O51          C54   1.267       .  A
O52        C1936   1.271       .  A
O53       Fe1918   2.071       .  S
O53          C66   1.268       .  A
C54          O59   1.273       .  A
C54         C463   1.490       .  S
C55         C403   1.483       .  S
O56       Fe1918   1.979       .  S
O57       Fe1918   2.090       .  S
O57          C60   1.271       .  A
O58          C60   1.260       .  A
C60         C340   1.496       .  S
O61          C66   1.268       .  A
O62          C64   1.268       .  A
C63        O1937   1.270       .  A
C63         C330   1.495       .  S
C64        O1924   1.271       .  A
C64         C320   1.499       .  S
O65        C1935   1.270   1_455  A
C66         C350   1.483       .  S
Fe67         O83   2.020       .  S
Fe67         O73   2.055       .  S
Fe67         O80   2.075       .  S
Fe67         O72   2.036       .  S
Fe67         O78   1.932       .  S
Fe68         O75   2.096       .  S
Fe68         O79   2.087       .  S
Fe68        O539   2.063   1_554  S
Fe68        O552   2.077   1_554  S
Fe68         O78   1.948       .  S
Fe69         O87   2.065       .  S
Fe69         O74   2.067       .  S
Fe69         O81   2.072       .  S
Fe69         O70   2.070       .  S
Fe69        O546   1.961       .  S
O70          C77   1.267       .  A
O71        Fe536   2.060       .  S
O71          C85   1.271       .  A
O72         C545   1.266   1_554  A
O73         C544   1.268   1_554  A
O74          C86   1.267       .  A
O75          C88   1.272       .  A
C76          O81   1.269       .  A
C76         O541   1.268       .  A
C76         C310   1.476       .  S
C77         O540   1.266       .  A
C77         C300   1.459       .  S
O78        Fe537   1.958   1_554  S
O79          C82   1.273       .  A
O80          C82   1.268       .  A
C82         C423   1.503       .  S
O83          C88   1.261       .  A
O84        Fe536   2.074       .  S
O84          C86   1.269       .  A
C85          O87   1.271       .  A
C85         C293   1.468       .  S
C86         C280   1.504       .  S
C88         C360   1.462       .  S
Fe89        O105   2.036       .  S
Fe89         O95   2.064       .  S
Fe89        O102   2.074       .  S
Fe89         O94   2.043       .  S
Fe89        O100   1.966       .  S
Fe90         O97   2.108       .  S
Fe90        O101   2.076       .  S
Fe90        O561   2.071   1_554  S
Fe90        O574   2.096   1_554  S
Fe90        O100   1.975       .  S
Fe91        O109   2.073       .  S
Fe91         O96   2.071       .  S
Fe91        O103   2.095       .  S
Fe91         O92   2.088       .  S
Fe91        O568   1.983       .  S
O92          C99   1.271       .  A
O93        Fe558   2.063       .  S
O93         C107   1.267       .  A
O94         C567   1.265   1_554  A
O95         C566   1.269   1_554  A
O96         C108   1.270       .  A
O97         C110   1.274       .  A
C98         O103   1.273       .  A
C98         O563   1.269       .  A
C98         C273   1.493       .  S
C99         O562   1.266       .  A
C99         C313   1.488       .  S
O100       Fe559   1.982   1_554  S
O101        C104   1.270       .  A
O102        C104   1.270       .  A
C104        C373   1.485       .  S
O105        C110   1.262       .  A
O106       Fe558   2.088       .  S
O106        C108   1.275       .  A
C107        O109   1.271       .  A
C107        C250   1.496       .  S
C108        C263   1.497       .  S
C110        C333   1.501       .  S
Fe111       O127   2.083       .  S
Fe111       O117   2.032       .  S
Fe111       O124   2.029       .  S
Fe111       O116   2.069       .  S
Fe111       O122   1.941       .  S
Fe112       O119   2.083       .  S
Fe112       O123   2.097       .  S
Fe112       O583   2.093   1_554  S
Fe112       O596   2.061   1_554  S
Fe112       O122   1.958       .  S
Fe113       O131   2.080       .  S
Fe113       O118   2.085       .  S
Fe113       O125   2.081       .  S
Fe113       O114   2.086       .  S
Fe113       O590   1.968       .  S
O114        C121   1.275       .  A
O115       Fe580   2.095       .  S
O115        C129   1.275       .  A
O116        C589   1.272   1_554  A
O117        C588   1.262   1_554  A
O118        C130   1.273       .  A
O119        C132   1.274       .  A
C120        O125   1.268       .  A
C120        O585   1.262       .  A
C120        C303   1.466       .  S
C121        O584   1.272       .  A
C121        C270   1.489       .  S
O122       Fe581   1.966   1_554  S
O123        C126   1.271       .  A
O124        C126   1.260       .  A
C126        C323   1.477       .  S
O127        C132   1.274       .  A
O128       Fe580   2.063       .  S
O128        C130   1.269       .  A
C129        O131   1.271       .  A
C129        C233   1.516       .  S
C130        C240   1.492       .  S
C132        C413   1.485       .  S
Fe133       O149   2.055       .  S
Fe133       O139   2.053       .  S
Fe133       O146   2.048       .  S
Fe133       O138   2.055       .  S
Fe133       O144   1.968       .  S
Fe134       O137   2.081       .  S
Fe134       O141   2.099       .  S
Fe134       O145   2.106       .  S
Fe134       O150   2.093       .  S
Fe134       O144   1.988       .  S
Fe135       O153   2.081       .  S
Fe135       O140   2.038       .  S
Fe135       O147   2.063       .  S
Fe135       O136   2.090       .  S
Fe135       O144   1.981       .  S
O136        C143   1.271       .  A
O137        C151   1.274       .  A
O138        C143   1.267       .  A
O139        C142   1.267       .  A
O140        C152   1.263       .  A
O141        C154   1.274       .  A
C142        O147   1.265       .  A
C142        C220   1.475       .  S
C143       C1146   1.494       .  S
O145        C148   1.275       .  A
O146        C148   1.264       .  A
C148        C260   1.517       .  S
O149        C154   1.266       .  A
O150        C152   1.274       .  A
C151        O153   1.273       .  A
C151        C430   1.488       .  S
C152        C390   1.485       .  S
C154        C230   1.486       .  S
Fe155       O171   2.035       .  S
Fe155       O161   2.057       .  S
Fe155       O168   2.063       .  S
Fe155       O160   2.035       .  S
Fe155       O166   1.953       .  S
Fe156       O159   2.074       .  S
Fe156       O163   2.083       .  S
Fe156       O167   2.072       .  S
Fe156       O172   2.075       .  S
Fe156       O166   1.969       .  S
Fe157       O175   2.061       .  S
Fe157       O162   2.047       .  S
Fe157       O169   2.072       .  S
Fe157       O158   2.080       .  S
Fe157       O166   1.979       .  S
O158        C165   1.270       .  A
O159        C173   1.270       .  A
O160        C165   1.264       .  A
O161        C164   1.267       .  A
O162        C174   1.266       .  A
O163        C176   1.269       .  A
C164        O169   1.267       .  A
C164       C1136   1.476       .  S
C165       C2095   1.478   1_455  S
O167        C170   1.270       .  A
O168        C170   1.269       .  A
C170        C243   1.487       .  S
O171        C176   1.261       .  A
O172        C174   1.273       .  A
C173        O175   1.269       .  A
C173        C380   1.494       .  S
C174        C343   1.481       .  S
C176        C290   1.492       .  S
Fe177       O193   2.049       .  S
Fe177       O183   2.052       .  S
Fe177       O190   2.062       .  S
Fe177       O182   2.047       .  S
Fe177       O188   1.972       .  S
Fe178       O181   2.078       .  S
Fe178       O185   2.086       .  S
Fe178       O189   2.075       .  S
Fe178       O194   2.076       .  S
Fe178       O188   1.979       .  S
Fe179       O197   2.066       .  S
Fe179       O184   2.069       .  S
Fe179       O191   2.089       .  S
Fe179       O180   2.078       .  S
Fe179       O188   1.984       .  S
O180        C187   1.269       .  A
O181        C195   1.269       .  A
O182        C187   1.267       .  A
O183        C186   1.267       .  A
O184        C196   1.270       .  A
O185        C198   1.272       .  A
C186        O191   1.272       .  A
C186       C2085   1.488   1_455  S
C187        C203   1.487       .  S
O189        C192   1.268       .  A
O190        C192   1.267       .  A
C192        C283   1.478       .  S
O193        C198   1.265       .  A
O194        C196   1.271       .  A
C195        O197   1.268       .  A
C195        C353   1.510       .  S
C196        C440   1.498       .  S
C198        C253   1.486       .  S
C199        C200   1.407       .  A
C199        C204   1.403       .  A
C199       Br206   1.928       .  S
C200       C1100   1.476   1_545  S
C200        C201   1.406       .  A
C201        C202   1.411       .  A
C201      Br1144   1.924       .  S
C202        C203   1.416       .  A
C202       Br207   1.926       .  S
C203        C204   1.412       .  A
C204       Br205   1.930       .  S
Br208      C1137   1.924       .  S
C209        C210   1.415       .  A
C209        C214   1.414       .  A
C209      Br1152   1.925       .  S
C210       C1079   1.494   1_545  S
C210        C211   1.413       .  A
C211        C212   1.406       .  A
C211       Br218   1.931       .  S
C212        C213   1.411       .  A
C212       Br217   1.933       .  S
C213       C2058   1.488       .  S
C213        C214   1.412       .  A
C214      Br2087   1.926       .  S
Br215      C2086   1.926   1_455  S
Br216      C1145   1.925       .  S
C219        C220   1.411       .  A
C219        C224   1.408       .  A
C219       Br226   1.925       .  S
C220        C221   1.407       .  A
C221        C222   1.402       .  A
C221       Br228   1.929       .  S
C222        C223   1.412       .  A
C222       Br227   1.931       .  S
C223       C2037   1.478       .  S
C223        C224   1.410       .  A
C224      Br2097   1.927       .  S
Br225      C2096   1.927   1_455  S
C229        C230   1.405       .  A
C229        C234   1.416       .  A
C229       Br236   1.928       .  S
C230        C231   1.404       .  A
C231        C232   1.413       .  A
C231       Br238   1.931       .  S
C232        C233   1.426       .  A
C232       Br237   1.935       .  S
C233        C234   1.428       .  A
C234       Br235   1.934       .  S
C239        C244   1.407   1_655  A
C239       C2112   1.416       .  A
C239       Br246   1.935       .  S
C240        C241   1.417       .  A
C240       C2111   1.416       .  A
C241        C242   1.412       .  A
C241       Br248   1.933       .  S
C242       C2115   1.412       .  A
C242       Br247   1.933       .  S
C243        C244   1.412       .  A
C243       C2114   1.412       .  A
C244       Br245   1.932       .  S
C249        C250   1.418       .  A
C249       C2126   1.411       .  A
C249       Br256   1.935       .  S
C250        C251   1.420       .  A
C251       C2124   1.408       .  A
C251       Br258   1.938       .  S
C252        C253   1.412       .  A
C252       C2123   1.408   1_455  A
C252       Br257   1.932       .  S
C253        C254   1.411       .  A
C254       C2121   1.411   1_455  A
C254       Br255   1.932       .  S
C259        C260   1.422       .  A
C259       C1200   1.420       .  A
C259       Br266   1.929       .  S
C260       C1197   1.426       .  A
C261        C262   1.408   1_565  A
C261       C1196   1.425       .  A
C261       Br268   1.941       .  S
C262        C263   1.410       .  A
C262       Br267   1.931       .  S
C263        C264   1.414       .  A
C264       C1195   1.420   1_545  A
C264       Br265   1.933       .  S
C269        C270   1.415       .  A
C269        C274   1.416       .  A
C269       Br276   1.929       .  S
C270        C271   1.409       .  A
C271        C272   1.410       .  A
C271       Br278   1.931       .  S
C272        C273   1.414       .  A
C272       Br277   1.928       .  S
C273        C274   1.411       .  A
C274       Br275   1.925       .  S
C279        C280   1.425       .  A
C279        C284   1.408       .  A
C279       Br286   1.938       .  S
C280        C281   1.426       .  A
C281        C282   1.412       .  A
C281       Br288   1.934       .  S
C282        C283   1.405       .  A
C282       Br287   1.934       .  S
C283        C284   1.402       .  A
C284       Br285   1.923       .  S
C289        C290   1.421       .  A
C289       C1230   1.408       .  A
C289       Br296   1.933       .  S
C290        C291   1.424       .  A
C291       C1228   1.404       .  A
C291       Br298   1.936       .  S
C292        C293   1.403       .  A
C292       C1227   1.404       .  A
C292       Br297   1.936       .  S
C293        C294   1.407       .  A
C294       C1225   1.408   1_545  A
C294       Br295   1.934       .  S
C299        C304   1.391       .  A
C299        C768   1.402       .  A
C299       Br306   1.936       .  S
C300        C301   1.407       .  A
C300        C767   1.403       .  A
C301        C302   1.410       .  A
C301       Br308   1.925       .  S
C302        C303   1.408       .  A
C302       Br307   1.924       .  S
C303        C772   1.412       .  A
C304        C771   1.411       .  A
C304       Br305   1.928   1_556  S
C309        C310   1.406       .  A
C309        C314   1.403       .  A
C309       Br316   1.932       .  S
C310        C311   1.409       .  A
C311        C312   1.412       .  A
C311       Br318   1.927       .  S
C312        C313   1.414       .  A
C312       Br317   1.925       .  S
C313        C314   1.414       .  A
C314       Br315   1.926       .  S
C319        C320   1.419       .  A
C319        C324   1.411       .  A
C319      Br2198   1.932       .  S
C320        C321   1.421       .  A
C321        C322   1.408       .  A
C321       Br328   1.933       .  S
C322        C323   1.408       .  A
C322       Br327   1.935       .  S
C323        C324   1.406       .  A
C324       Br325   1.929       .  S
Br326      C2191   1.932   1_455  S
C329        C330   1.417       .  A
C329        C334   1.417       .  A
C329      Br2208   1.934       .  S
C330        C331   1.412       .  A
C331        C332   1.408       .  A
C331       Br338   1.935       .  S
C332        C333   1.420       .  A
C332       Br337   1.937       .  S
C333        C334   1.417       .  A
C334       Br335   1.931       .  S
Br336      C2201   1.934   1_455  S
C339        C340   1.420       .  A
C339        C344   1.413       .  A
C339      Br2218   1.933   1_455  S
C340        C341   1.423       .  A
C341        C342   1.402       .  A
C341       Br348   1.940       .  S
C342        C343   1.407       .  A
C342       Br347   1.936       .  S
C343        C344   1.413       .  A
C344      Br2217   1.936       .  S
Br345      C2216   1.936       .  S
Br346      C2211   1.933       .  S
C349        C350   1.406       .  A
C349        C354   1.412       .  A
C349       Br356   1.933       .  S
C350        C351   1.406       .  A
C351        C352   1.412       .  A
C351      Br2230   1.934       .  S
C352        C353   1.426       .  A
C352       Br357   1.936       .  S
C353        C354   1.427       .  A
C354       Br355   1.935       .  S
Br358      C2223   1.934       .  S
C359        C360   1.403       .  A
C359        C364   1.403       .  A
C359       Br366   1.932       .  S
C360        C361   1.402       .  A
C361        C362   1.406       .  A
C361       Br368   1.931       .  S
C362        C363   1.420       .  A
C362      Br1303   1.931   1_545  S
C363        C364   1.419       .  A
C364       Br365   1.934       .  S
Br367      C1298   1.931       .  S
C369        C370   1.428       .  A
C369        C374   1.414       .  A
C369      Br1312   1.935   1_545  S
C370        C371   1.424       .  A
C371        C372   1.412       .  A
C371       Br378   1.935       .  S
C372        C373   1.405       .  A
C372       Br377   1.930       .  S
C373        C374   1.407       .  A
C374       Br375   1.935       .  S
Br376      C1305   1.935       .  S
C379        C380   1.420       .  A
C379        C384   1.408       .  A
C379       Br386   1.933       .  S
C380        C381   1.421       .  A
C381        C382   1.407       .  A
C381      Br1324   1.935       .  S
C382        C383   1.405       .  A
C382      Br1323   1.932       .  S
C383        C384   1.407       .  A
C384       Br385   1.932       .  S
Br387      C1318   1.932   1_545  S
Br388      C1317   1.935       .  S
C389        C390   1.413       .  A
C389        C394   1.412       .  A
C389       Br396   1.923       .  S
C390        C391   1.420       .  A
C391        C392   1.401       .  A
C391       Br398   1.937       .  S
C392        C393   1.401       .  A
C392       Br397   1.933       .  S
C393        C394   1.407       .  A
C394       Br395   1.926       .  S
C399        C400   1.409       .  A
C399        C404   1.407       .  A
C399       Br406   1.932       .  S
C400        C401   1.414       .  A
C401        C402   1.412       .  A
C401       Br408   1.930       .  S
C402        C403   1.409       .  A
C402       Br407   1.925       .  S
C403        C404   1.412       .  A
C404       Br405   1.928       .  S
C409        C410   1.414       .  A
C409        C414   1.417       .  A
C409       Br416   1.927       .  S
C410        C411   1.414       .  A
C411        C412   1.407       .  A
C411       Br418   1.934       .  S
C412        C413   1.408       .  A
C412       Br417   1.927       .  S
C413        C414   1.409       .  A
C414       Br415   1.926       .  S
C419        C420   1.403       .  A
C419        C424   1.408       .  A
C419       Br426   1.935       .  S
C420        C421   1.407       .  A
C421        C422   1.415       .  A
C421       Br428   1.931       .  S
C422        C423   1.421       .  A
C422       Br427   1.930       .  S
C423        C424   1.427       .  A
C424       Br425   1.937       .  S
C429        C430   1.407       .  A
C429        C434   1.412       .  A
C429       Br436   1.937       .  S
C430        C431   1.408       .  A
C431        C432   1.417       .  A
C431       Br438   1.930       .  S
C432        C433   1.424       .  A
C432       Br437   1.932       .  S
C433        C434   1.430       .  A
C434       Br435   1.940       .  S
C439        C440   1.419       .  A
C439        C444   1.408       .  A
C439       Br446   1.937       .  S
C440        C441   1.421       .  A
C441        C442   1.414       .  A
C441       Br448   1.932       .  S
C442        C443   1.406       .  A
C442       Br447   1.929       .  S
C443        C444   1.412       .  A
C444       Br445   1.937       .  S
C449        C450   1.411       .  A
C449        C454   1.414       .  A
C449       Br456   1.923       .  S
C450        C451   1.408       .  A
C451        C452   1.394       .  A
C451       Br458   1.926       .  S
C452        C453   1.405       .  A
C452       Br457   1.930       .  S
C453        C454   1.408       .  A
C454       Br455   1.925       .  S
C459        C460   1.406       .  A
C459        C464   1.404       .  A
C459       Br466   1.931       .  S
C460        C461   1.410       .  A
C461        C462   1.413       .  A
C461       Br468   1.928       .  S
C462        C463   1.415       .  A
C462       Br467   1.926       .  S
C463        C464   1.415       .  A
C464       Br465   1.932       .  S
Fe469       O485   2.076       .  S
Fe469       O475   2.038       .  S
Fe469       O482   2.017       .  S
Fe469       O474   2.056       .  S
Fe469       O480   1.936       .  S
Fe470       O473   2.103       .  S
Fe470       O477   2.085       .  S
Fe470       O481   2.132       .  S
Fe470       O486   2.075       .  S
Fe470       O480   1.953       .  S
Fe471       O489   2.062       .  S
Fe471       O476   2.073       .  S
Fe471       O483   2.095       .  S
Fe471       O472   2.073       .  S
Fe471       O480   1.961       .  S
O472        C479   1.267       .  A
O473        C487   1.277       .  A
O474        C479   1.267       .  A
O475        C478   1.266       .  A
O476        C488   1.272       .  A
O477        C490   1.270       .  A
C478        O483   1.273       .  A
C478        C921   1.465       .  S
C479        C928   1.476       .  S
O481        C484   1.281       .  A
O482        C484   1.260       .  A
C484        C911   1.487       .  S
O485        C490   1.266       .  A
O486        C488   1.273       .  A
C487        O489   1.270       .  A
C487        C878   1.491       .  S
C488        C888   1.474       .  S
C490        C901   1.513       .  S
Fe491       O507   2.035       .  S
Fe491       O497   2.062       .  S
Fe491       O504   2.062       .  S
Fe491       O496   2.053       .  S
Fe491       O502   1.941       .  S
Fe492       O495   2.051   1_565  S
Fe492      O1435   2.087       .  S
Fe492       O503   2.061       .  S
Fe492       O508   2.100   1_565  S
Fe492      O1438   1.960       .  S
Fe493       O511   2.074       .  S
Fe493       O498   2.065       .  S
Fe493       O505   2.077       .  S
Fe493       O494   2.073       .  S
Fe493       O502   1.963       .  S
O494        C501   1.266       .  A
O495        C509   1.264       .  A
O496        C501   1.265       .  A
O497        C500   1.273       .  A
O498       C1446   1.268       .  A
O499      Fe1428   2.087       .  S
O499        C512   1.270       .  A
C500        O505   1.273       .  A
C500        C868   1.482       .  S
C501        C918   1.469       .  S
O502      Fe1428   1.960       .  S
O503       C1442   1.270       .  A
O504        C506   1.270       .  A
C506       O1439   1.270       .  A
C506        C861   1.463       .  S
O507        C512   1.262       .  A
O508        C510   1.276   1_545  A
C509       O1447   1.269   1_545  A
C509        C831   1.483       .  S
C510       O1434   1.268       .  A
C510        C838   1.512   1_565  S
O511       C1445   1.269       .  A
C512        C851   1.478       .  S
Fe513       O529   2.070       .  S
Fe513       O519   2.051       .  S
Fe513       O526   2.044       .  S
Fe513       O518   2.056       .  S
Fe513       O524   1.968       .  S
Fe514       O517   2.069       .  S
Fe514      O2393   2.072       .  S
Fe514      O2397   2.080       .  S
Fe514       O530   2.070       .  S
Fe514      O2396   1.978       .  S
Fe515       O533   2.074       .  S
Fe515       O520   2.067       .  S
Fe515       O527   2.086       .  S
Fe515       O516   2.089       .  S
Fe515       O524   1.988       .  S
O516        C523   1.271       .  A
O517        C531   1.271       .  A
O518        C523   1.267       .  A
O519        C522   1.268       .  A
O520       C2404   1.269       .  A
O521      Fe2386   2.072       .  S
O521        C534   1.268       .  A
C522        O527   1.271       .  A
C522        C931   1.488       .  S
C523        C871   1.488       .  S
O524      Fe2386   1.978       .  S
O525      Fe2386   2.080       .  S
O525        C528   1.270       .  A
O526        C528   1.264       .  A
C528        C808   1.490       .  S
O529        C534   1.269       .  A
O530        C532   1.268       .  A
C531       O2405   1.271       .  A
C531        C798   1.494       .  S
C532       O2392   1.269       .  A
C532        C788   1.500       .  S
O533       C2403   1.271   1_455  A
C534        C818   1.483       .  S
Fe535       O551   2.021       .  S
Fe535       O541   2.053       .  S
Fe535       O548   2.072       .  S
Fe535       O540   2.035       .  S
Fe535       O546   1.938       .  S
Fe536       O543   2.090       .  S
Fe536       O547   2.082       .  S
Fe536       O546   1.954       .  S
Fe537       O555   2.068       .  S
Fe537       O542   2.061       .  S
Fe537       O549   2.069       .  S
Fe537       O538   2.066       .  S
O538        C545   1.267       .  A
O539        C553   1.273       .  A
O542        C554   1.266       .  A
O543        C556   1.270       .  A
C544        O549   1.268       .  A
C544        C778   1.475       .  S
C545        C768   1.455       .  S
O547        C550   1.273       .  A
O548        C550   1.268       .  A
C550        C891   1.498       .  S
O551        C556   1.261       .  A
O552        C554   1.270       .  A
C553        O555   1.271       .  A
C553        C761   1.473       .  S
C554        C748   1.495       .  S
C556        C828   1.461       .  S
Fe557       O573   2.038       .  S
Fe557       O563   2.066       .  S
Fe557       O570   2.076       .  S
Fe557       O562   2.046       .  S
Fe557       O568   1.965       .  S
Fe558       O565   2.098       .  S
Fe558       O569   2.073       .  S
Fe558       O568   1.976       .  S
Fe559       O577   2.072       .  S
Fe559       O564   2.072       .  S
Fe559       O571   2.098       .  S
Fe559       O560   2.088       .  S
O560        C567   1.271       .  A
O561        C575   1.269       .  A
O564        C576   1.271       .  A
O565        C578   1.272       .  A
C566        O571   1.274       .  A
C566        C741   1.492       .  S
C567        C781   1.489       .  S
O569        C572   1.269       .  A
O570        C572   1.271       .  A
C572        C841   1.485       .  S
O573        C578   1.263       .  A
O574        C576   1.276       .  A
C575        O577   1.271       .  A
C575        C718   1.502       .  S
C576        C731   1.503       .  S
C578        C801   1.496       .  S
Fe579       O595   2.081       .  S
Fe579       O585   2.033       .  S
Fe579       O592   2.026       .  S
Fe579       O584   2.068       .  S
Fe579       O590   1.945       .  S
Fe580       O587   2.081       .  S
Fe580       O591   2.098       .  S
Fe580       O590   1.962       .  S
Fe581       O599   2.076       .  S
Fe581       O586   2.083       .  S
Fe581       O593   2.077       .  S
Fe581       O582   2.084       .  S
O582        C589   1.274       .  A
O583        C597   1.273       .  A
O586        C598   1.273       .  A
O587        C600   1.273       .  A
C588        O593   1.268       .  A
C588        C771   1.463       .  S
C589        C738   1.490       .  S
O591        C594   1.272       .  A
O592        C594   1.260       .  A
C594        C791   1.477       .  S
O595        C600   1.273       .  A
O596        C598   1.269       .  A
C597        O599   1.270       .  A
C597        C701   1.510       .  S
C598        C708   1.491       .  S
C600        C881   1.484       .  S
Fe601       O617   2.058       .  S
Fe601       O607   2.057       .  S
Fe601       O614   2.053       .  S
Fe601       O606   2.055       .  S
Fe601       O612   1.968       .  S
Fe602       O605   2.079       .  S
Fe602       O609   2.092       .  S
Fe602       O613   2.110       .  S
Fe602       O618   2.088       .  S
Fe602       O612   1.988       .  S
Fe603       O621   2.077       .  S
Fe603       O608   2.036       .  S
Fe603       O615   2.061       .  S
Fe603       O604   2.085       .  S
Fe603       O612   1.982       .  S
O604        C611   1.270       .  A
O605        C619   1.273       .  A
O606        C611   1.268       .  A
O607        C610   1.267       .  A
O608        C620   1.263       .  A
O609        C622   1.272       .  A
C610        O615   1.264       .  A
C610        C688   1.477       .  S
C611       C1614   1.490       .  S
O613        C616   1.275       .  A
O614        C616   1.265       .  A
C616        C728   1.520       .  S
O617        C622   1.267       .  A
O618        C620   1.274       .  A
C619        O621   1.272       .  A
C619        C898   1.487       .  S
C620        C858   1.484       .  S
C622        C698   1.484       .  S
Fe623       O639   2.030       .  S
Fe623       O629   2.055       .  S
Fe623       O636   2.062       .  S
Fe623       O628   2.031       .  S
Fe623       O634   1.958       .  S
Fe624       O627   2.069       .  S
Fe624       O631   2.087       .  S
Fe624       O635   2.064       .  S
Fe624       O640   2.072       .  S
Fe624       O634   1.972       .  S
Fe625       O643   2.061       .  S
Fe625       O630   2.054       .  S
Fe625       O637   2.075       .  S
Fe625       O626   2.085       .  S
Fe625       O634   1.984       .  S
O626        C633   1.270       .  A
O627        C641   1.268       .  A
O628        C633   1.264       .  A
O629        C632   1.267       .  A
O630        C642   1.267       .  A
O631        C644   1.271       .  A
C632        O637   1.268       .  A
C632       C1604   1.478       .  S
C633       C2563   1.477   1_455  S
O635        C638   1.266       .  A
O636        C638   1.268       .  A
C638        C711   1.481       .  S
O639        C644   1.261       .  A
O640        C642   1.271       .  A
C641        O643   1.268       .  A
C641        C848   1.490       .  S
C642        C811   1.499       .  S
C644        C758   1.490       .  S
Fe645       O661   2.054       .  S
Fe645       O651   2.053       .  S
Fe645       O658   2.062       .  S
Fe645       O650   2.049       .  S
Fe645       O656   1.974       .  S
Fe646       O649   2.068       .  S
Fe646       O653   2.085       .  S
Fe646       O657   2.071       .  S
Fe646       O662   2.076       .  S
Fe646       O656   1.977       .  S
Fe647       O665   2.066       .  S
Fe647       O652   2.071       .  S
Fe647       O659   2.086       .  S
Fe647       O648   2.076       .  S
Fe647       O656   1.985       .  S
O648        C655   1.268       .  A
O649        C663   1.267       .  A
O650        C655   1.266       .  A
O651        C654   1.268       .  A
O652        C664   1.271       .  A
O653        C666   1.271       .  A
C654        O659   1.272       .  A
C654       C2553   1.486   1_455  S
C655        C671   1.488       .  S
O657        C660   1.268       .  A
O658        C660   1.268       .  A
C660        C751   1.474       .  S
O661        C666   1.265       .  A
O662        C664   1.272       .  A
C663        O665   1.267       .  A
C663        C821   1.507       .  S
C664        C908   1.495       .  S
C666        C721   1.489       .  S
C667        C668   1.407       .  A
C667        C672   1.403       .  A
C667       Br674   1.927       .  S
C668       C1568   1.478   1_545  S
C668        C669   1.406       .  A
C669        C670   1.412       .  A
C669      Br1612   1.924       .  S
C670        C671   1.417       .  A
C670       Br675   1.927       .  S
C671        C672   1.412       .  A
C672       Br673   1.931       .  S
Br676      C1605   1.924       .  S
C677        C678   1.414       .  A
C677        C682   1.413       .  A
C677      Br1620   1.925       .  S
C678       C1547   1.490   1_545  S
C678        C679   1.411       .  A
C679        C680   1.405       .  A
C679       Br686   1.932       .  S
C680        C681   1.412       .  A
C680       Br685   1.931       .  S
C681       C2526   1.486       .  S
C681        C682   1.413       .  A
C682      Br2555   1.927       .  S
Br683      C2554   1.927   1_455  S
Br684      C1613   1.925       .  S
C687        C688   1.412       .  A
C687        C692   1.408       .  A
C687       Br694   1.925       .  S
C688        C689   1.407       .  A
C689        C690   1.402       .  A
C689       Br696   1.928       .  S
C690        C691   1.411       .  A
C690       Br695   1.931       .  S
C691       C2505   1.477       .  S
C691        C692   1.409       .  A
C692      Br2565   1.927       .  S
Br693      C2564   1.927   1_455  S
C697        C698   1.405       .  A
C697        C702   1.414       .  A
C697       Br704   1.928       .  S
C698        C699   1.403       .  A
C699        C700   1.412       .  A
C699       Br706   1.931       .  S
C700        C701   1.425       .  A
C700       Br705   1.933   1_556  S
C701        C702   1.427       .  A
C702       Br703   1.934       .  S
C707       C2580   1.417       .  A
C707        C712   1.405   1_655  A
C707       Br714   1.936       .  S
C708       C2579   1.417       .  A
C708        C709   1.420       .  A
C709        C710   1.411       .  A
C709       Br716   1.934       .  S
C710       C2583   1.410       .  A
C710       Br715   1.933       .  S
C711       C2582   1.410       .  A
C711        C712   1.408       .  A
C712       Br713   1.928       .  S
C717        C718   1.420       .  A
C717       C2594   1.411       .  A
C717       Br724   1.936       .  S
C718        C719   1.422       .  A
C719       C2592   1.411       .  A
C719       Br726   1.938   1_556  S
C720       C2591   1.411   1_455  A
C720        C721   1.412       .  A
C720       Br725   1.931       .  S
C721        C722   1.410       .  A
C722       C2589   1.411   1_455  A
C722       Br723   1.932       .  S
C727        C728   1.421       .  A
C727       C1668   1.420       .  A
C727       Br734   1.928       .  S
C728       C1665   1.425       .  A
C729       C1664   1.425       .  A
C729        C730   1.412   1_565  A
C729       Br736   1.940       .  S
C730        C731   1.413       .  A
C730       Br735   1.933       .  S
C731        C732   1.416       .  A
C732       C1663   1.420   1_545  A
C732       Br733   1.934       .  S
C737        C738   1.415       .  A
C737        C742   1.416       .  A
C737       Br744   1.929       .  S
C738        C739   1.410       .  A
C739        C740   1.410       .  A
C739       Br746   1.931   1_556  S
C740        C741   1.413       .  A
C740       Br745   1.928   1_556  S
C741        C742   1.411       .  A
C742       Br743   1.924       .  S
C747        C748   1.420       .  A
C747        C752   1.407       .  A
C747       Br754   1.933   1_556  S
C748        C749   1.423       .  A
C749        C750   1.409       .  A
C749       Br756   1.934       .  S
C750        C751   1.405       .  A
C750       Br755   1.931       .  S
C751        C752   1.402       .  A
C752       Br753   1.923       .  S
C757        C758   1.418       .  A
C757       C1698   1.409       .  A
C757       Br764   1.935       .  S
C758        C759   1.423       .  A
C759       C1696   1.404       .  A
C759       Br766   1.935       .  S
C760       C1695   1.404       .  A
C760        C761   1.404       .  A
C760       Br765   1.937       .  S
C761        C762   1.410       .  A
C762       C1693   1.409   1_545  A
C762       Br763   1.933       .  S
C767        C772   1.393       .  A
C767       Br774   1.937       .  S
C768        C769   1.407       .  A
C769        C770   1.409       .  A
C769       Br776   1.927       .  S
C770        C771   1.409       .  A
C770       Br775   1.925       .  S
C772       Br773   1.927       .  S
C777        C778   1.405       .  A
C777        C782   1.403       .  A
C777       Br784   1.932   1_556  S
C778        C779   1.409       .  A
C779        C780   1.412       .  A
C779       Br786   1.928       .  S
C780        C781   1.415       .  A
C780       Br785   1.926       .  S
C781        C782   1.415       .  A
C782       Br783   1.927   1_556  S
C787        C788   1.422       .  A
C787        C792   1.411       .  A
C787      Br2666   1.934       .  S
C788        C789   1.422       .  A
C789        C790   1.408       .  A
C789       Br796   1.935       .  S
C790        C791   1.408       .  A
C790       Br795   1.936       .  S
C791        C792   1.406       .  A
C792       Br793   1.930       .  S
Br794      C2659   1.934   1_455  S
C797        C798   1.416       .  A
C797        C802   1.416       .  A
C797      Br2676   1.934       .  S
C798        C799   1.415       .  A
C799        C800   1.407       .  A
C799       Br806   1.935       .  S
C800        C801   1.416       .  A
C800       Br805   1.937       .  S
C801        C802   1.417       .  A
C802       Br803   1.931       .  S
Br804      C2669   1.934   1_455  S
C807        C808   1.414       .  A
C807        C812   1.412       .  A
C807      Br2686   1.936       .  S
C808        C809   1.415       .  A
C809        C810   1.407       .  A
C809       Br816   1.935       .  S
C810        C811   1.420       .  A
C810       Br815   1.939       .  S
C811        C812   1.423       .  A
C812      Br2685   1.940       .  S
Br813      C2684   1.940       .  S
Br814      C2679   1.936       .  S
C817        C818   1.404       .  A
C817        C822   1.409       .  A
C817       Br824   1.924       .  S
C818        C819   1.405       .  A
C819        C820   1.413       .  A
C819      Br2698   1.933       .  S
C820        C821   1.427       .  A
C820       Br825   1.935       .  S
C821        C822   1.426       .  A
C822       Br823   1.938       .  S
Br826      C2691   1.933       .  S
C827        C828   1.404       .  A
C827        C832   1.404       .  A
C827       Br834   1.932       .  S
C828        C829   1.402       .  A
C829        C830   1.405       .  A
C829       Br836   1.931       .  S
C830        C831   1.418       .  A
C830      Br1771   1.932   1_545  S
C831        C832   1.418       .  A
C832       Br833   1.934       .  S
Br835      C1766   1.932       .  S
C837        C838   1.429       .  A
C837        C842   1.414       .  A
C837      Br1780   1.936   1_545  S
C838        C839   1.424       .  A
C839        C840   1.412       .  A
C839       Br846   1.935       .  S
C840        C841   1.404       .  A
C840       Br845   1.930       .  S
C841        C842   1.406       .  A
C842       Br843   1.934       .  S
Br844      C1773   1.936       .  S
C847        C848   1.418       .  A
C847        C852   1.407       .  A
C847       Br854   1.934       .  S
C848        C849   1.417       .  A
C849        C850   1.408       .  A
C849      Br1792   1.934       .  S
C850        C851   1.408       .  A
C850      Br1791   1.930       .  S
C851        C852   1.410       .  A
C852       Br853   1.935       .  S
Br855      C1786   1.930   1_545  S
Br856      C1785   1.934       .  S
C857        C858   1.414       .  A
C857        C862   1.410       .  A
C857       Br864   1.920       .  S
C858        C859   1.421       .  A
C859        C860   1.400       .  A
C859       Br866   1.939       .  S
C860        C861   1.400       .  A
C860       Br865   1.933       .  S
C861        C862   1.405       .  A
C862       Br863   1.928       .  S
C867        C868   1.408       .  A
C867        C872   1.406       .  A
C867       Br874   1.934       .  S
C868        C869   1.413       .  A
C869        C870   1.413       .  A
C869       Br876   1.929       .  S
C870        C871   1.411       .  A
C870       Br875   1.925       .  S
C871        C872   1.414       .  A
C872       Br873   1.928       .  S
C877        C878   1.414       .  A
C877        C882   1.417       .  A
C877       Br884   1.927       .  S
C878        C879   1.415       .  A
C879        C880   1.407       .  A
C879       Br886   1.934       .  S
C880        C881   1.407       .  A
C880       Br885   1.930       .  S
C881        C882   1.409       .  A
C882       Br883   1.926       .  S
C887        C888   1.403       .  A
C887        C892   1.406       .  A
C887       Br894   1.934       .  S
C888        C889   1.406       .  A
C889        C890   1.414       .  A
C889       Br896   1.930       .  S
C890        C891   1.420       .  A
C890       Br895   1.930       .  S
C891        C892   1.424       .  A
C892       Br893   1.935       .  S
C897        C898   1.407       .  A
C897        C902   1.412       .  A
C897       Br904   1.938       .  S
C898        C899   1.407       .  A
C899        C900   1.415       .  A
C899       Br906   1.931       .  S
C900        C901   1.425       .  A
C900       Br905   1.933       .  S
C901        C902   1.430       .  A
C902       Br903   1.941       .  S
C907        C908   1.417       .  A
C907        C912   1.408       .  A
C907       Br914   1.938       .  S
C908        C909   1.419       .  A
C909        C910   1.415       .  A
C909       Br916   1.931       .  S
C910        C911   1.409       .  A
C910       Br915   1.928       .  S
C911        C912   1.415       .  A
C912       Br913   1.938       .  S
C917        C918   1.410       .  A
C917        C922   1.413       .  A
C917       Br924   1.923       .  S
C918        C919   1.407       .  A
C919        C920   1.392       .  A
C919       Br926   1.924       .  S
C920        C921   1.404       .  A
C920       Br925   1.927       .  S
C921        C922   1.408       .  A
C922       Br923   1.925       .  S
C927        C928   1.406       .  A
C927        C932   1.404       .  A
C927       Br934   1.930       .  S
C928        C929   1.409       .  A
C929        C930   1.413       .  A
C929       Br936   1.929       .  S
C930        C931   1.415       .  A
C930       Br935   1.926       .  S
C931        C932   1.413       .  A
C932       Br933   1.930       .  S
Fe937       O953   2.075       .  S
Fe937       O943   2.033       .  S
Fe937       O950   2.018       .  S
Fe937       O942   2.054       .  S
Fe937       O948   1.942       .  S
Fe938       O941   2.093       .  S
Fe938       O945   2.092       .  S
Fe938       O949   2.126       .  S
Fe938       O954   2.079       .  S
Fe938       O948   1.956       .  S
Fe939       O957   2.068       .  S
Fe939       O944   2.074       .  S
Fe939       O951   2.097       .  S
Fe939       O940   2.074       .  S
Fe939       O948   1.967       .  S
O940        C947   1.267       .  A
O941        C955   1.274       .  A
O942        C947   1.267       .  A
O943        C946   1.265       .  A
O944        C956   1.273       .  A
O945        C958   1.271       .  A
C946        O951   1.274       .  A
C946       C1389   1.466       .  S
C947       C1396   1.478       .  S
O949        C952   1.280       .  A
O950        C952   1.260       .  A
C952       C1379   1.483       .  S
O953        C958   1.266       .  A
O954        C956   1.275       .  A
C955        O957   1.271       .  A
C955       C1346   1.490       .  S
C956       C1356   1.477       .  S
C958       C1369   1.514       .  S
Fe959       O975   2.037       .  S
Fe959       O965   2.067       .  S
Fe959       O972   2.070       .  S
Fe959       O964   2.054       .  S
Fe959       O970   1.948       .  S
Fe960       O963   2.050       .  S
Fe960       O971   2.064       .  S
Fe960       O976   2.097       .  S
Fe961       O979   2.078       .  S
Fe961       O966   2.068       .  S
Fe961       O973   2.074       .  S
Fe961       O962   2.072       .  S
Fe961       O970   1.967       .  S
O962        C969   1.266       .  A
O963        C977   1.264       .  A
O964        C969   1.266       .  A
O965        C968   1.273       .  A
O967        C980   1.269       .  A
C968        O973   1.272       .  A
C968       C1336   1.482       .  S
C969       C1386   1.471       .  S
O972        C974   1.272       .  A
C974       C1329   1.468       .  S
O975        C980   1.262       .  A
O976        C978   1.275       .  A
C977       C1299   1.486       .  S
C978       C1306   1.512       .  S
C980       C1319   1.474       .  S
Fe981       O997   2.068       .  S
Fe981       O987   2.043       .  S
Fe981       O994   2.029       .  S
Fe981       O986   2.054       .  S
Fe981       O992   1.962       .  S
Fe982       O985   2.081       .  S
Fe982      O2861   2.071       .  S
Fe982      O2865   2.090       .  S
Fe982       O998   2.069       .  S
Fe982      O2864   1.979       .  S
Fe983      O1001   2.067       .  S
Fe983       O988   2.074       .  S
Fe983       O995   2.093       .  S
Fe983       O984   2.085       .  S
Fe983       O992   1.985       .  S
O984        C991   1.270       .  A
O985        C999   1.273       .  A
O986        C991   1.265       .  A
O987        C990   1.267       .  A
O988       C2872   1.271       .  A
O989      Fe2854   2.071       .  S
O989       C1002   1.268       .  A
C990        O995   1.273       .  A
C990       C1399   1.490       .  S
C991       C1339   1.483       .  S
O992      Fe2854   1.979       .  S
O993      Fe2854   2.090       .  S
O993        C996   1.271       .  A
O994        C996   1.260       .  A
C996       C1276   1.496       .  S
O997       C1002   1.268       .  A
O998       C1000   1.268       .  A
C999       O2873   1.270       .  A
C999       C1266   1.495       .  S
C1000      O2860   1.271       .  A
C1000      C1256   1.499       .  S
O1001      C2871   1.270   1_455  A
C1002      C1286   1.483       .  S
Fe1003     O1019   2.020       .  S
Fe1003     O1009   2.055       .  S
Fe1003     O1016   2.075       .  S
Fe1003     O1008   2.036       .  S
Fe1003     O1014   1.932       .  S
Fe1004     O1475   2.063   1_554  S
Fe1004     O1011   2.096       .  S
Fe1004     O1015   2.087       .  S
Fe1004     O1488   2.077   1_554  S
Fe1004     O1014   1.949       .  S
Fe1005     O1023   2.065       .  S
Fe1005     O1010   2.068       .  S
Fe1005     O1017   2.072       .  S
Fe1005     O1006   2.070       .  S
Fe1005     O1482   1.962       .  S
O1006      C1013   1.267       .  A
O1007     Fe1472   2.060       .  S
O1007      C1021   1.271       .  A
O1008      C1481   1.266   1_554  A
O1009      C1480   1.268   1_554  A
O1010      C1022   1.267       .  A
O1011      C1024   1.272       .  A
C1012      O1477   1.268       .  A
C1012      O1017   1.269       .  A
C1012      C1246   1.476       .  S
C1013      O1476   1.266       .  A
C1013      C1236   1.459       .  S
O1014     Fe1473   1.958   1_554  S
O1015      C1018   1.273       .  A
O1016      C1018   1.268       .  A
C1018      C1359   1.503       .  S
O1019      C1024   1.261       .  A
O1020     Fe1472   2.074       .  S
O1020      C1022   1.269       .  A
C1021      O1023   1.271       .  A
C1021      C1229   1.468       .  S
C1022      C1216   1.504       .  S
C1024      C1296   1.462       .  S
Fe1025     O1041   2.036       .  S
Fe1025     O1031   2.064       .  S
Fe1025     O1038   2.074       .  S
Fe1025     O1030   2.043       .  S
Fe1025     O1036   1.966       .  S
Fe1026     O1497   2.071   1_554  S
Fe1026     O1033   2.108       .  S
Fe1026     O1037   2.076       .  S
Fe1026     O1510   2.096   1_554  S
Fe1026     O1036   1.975       .  S
Fe1027     O1045   2.073       .  S
Fe1027     O1032   2.072       .  S
Fe1027     O1039   2.095       .  S
Fe1027     O1028   2.088       .  S
Fe1027     O1504   1.983       .  S
O1028      C1035   1.271       .  A
O1029     Fe1494   2.063       .  S
O1029      C1043   1.267       .  A
O1030      C1503   1.265   1_554  A
O1031      C1502   1.269   1_554  A
O1032      C1044   1.270       .  A
O1033      C1046   1.274       .  A
C1034      O1499   1.269       .  A
C1034      O1039   1.273       .  A
C1034      C1209   1.493       .  S
C1035      O1498   1.266       .  A
C1035      C1249   1.488       .  S
O1036     Fe1495   1.982   1_554  S
O1037      C1040   1.270       .  A
O1038      C1040   1.270       .  A
C1040      C1309   1.485       .  S
O1041      C1046   1.262       .  A
O1042     Fe1494   2.088       .  S
O1042      C1044   1.275       .  A
C1043      O1045   1.271       .  A
C1043      C1186   1.496       .  S
C1044      C1199   1.497       .  S
C1046      C1269   1.501       .  S
Fe1047     O1063   2.083       .  S
Fe1047     O1053   2.032       .  S
Fe1047     O1060   2.029       .  S
Fe1047     O1052   2.069       .  S
Fe1047     O1058   1.941       .  S
Fe1048     O1519   2.093   1_554  S
Fe1048     O1055   2.083       .  S
Fe1048     O1059   2.097       .  S
Fe1048     O1532   2.061   1_554  S
Fe1048     O1058   1.958       .  S
Fe1049     O1067   2.080       .  S
Fe1049     O1054   2.085       .  S
Fe1049     O1061   2.081       .  S
Fe1049     O1050   2.086       .  S
Fe1049     O1526   1.968       .  S
O1050      C1057   1.275       .  A
O1051     Fe1516   2.095       .  S
O1051      C1065   1.275       .  A
O1052      C1525   1.272   1_554  A
O1053      C1524   1.262   1_554  A
O1054      C1066   1.273       .  A
O1055      C1068   1.274       .  A
C1056      O1521   1.262       .  A
C1056      O1061   1.268       .  A
C1056      C1239   1.466       .  S
C1057      O1520   1.272       .  A
C1057      C1206   1.489       .  S
O1058     Fe1517   1.966   1_554  S
O1059      C1062   1.271       .  A
O1060      C1062   1.260       .  A
C1062      C1259   1.477       .  S
O1063      C1068   1.274       .  A
O1064     Fe1516   2.063       .  S
O1064      C1066   1.269       .  A
C1065      O1067   1.271       .  A
C1065      C1169   1.516       .  S
C1066      C1176   1.492       .  S
C1068      C1349   1.485       .  S
Fe1069     O1085   2.055       .  S
Fe1069     O1075   2.053       .  S
Fe1069     O1082   2.048       .  S
Fe1069     O1074   2.055       .  S
Fe1069     O1080   1.968       .  S
Fe1070     O1073   2.081       .  S
Fe1070     O1077   2.099       .  S
Fe1070     O1081   2.106       .  S
Fe1070     O1086   2.093       .  S
Fe1070     O1080   1.988       .  S
Fe1071     O1089   2.081       .  S
Fe1071     O1076   2.038       .  S
Fe1071     O1083   2.063       .  S
Fe1071     O1072   2.090       .  S
Fe1071     O1080   1.981       .  S
O1072      C1079   1.271       .  A
O1073      C1087   1.274       .  A
O1074      C1079   1.267       .  A
O1075      C1078   1.267       .  A
O1076      C1088   1.263       .  A
O1077      C1090   1.274       .  A
C1078      O1083   1.265       .  A
C1078      C1156   1.475       .  S
O1081      C1084   1.275       .  A
O1082      C1084   1.264       .  A
C1084      C1196   1.517       .  S
O1085      C1090   1.266       .  A
O1086      C1088   1.274       .  A
C1087      O1089   1.273       .  A
C1087      C1366   1.488       .  S
C1088      C1326   1.485       .  S
C1090      C1166   1.486       .  S
Fe1091     O1107   2.035       .  S
Fe1091     O1097   2.057       .  S
Fe1091     O1104   2.063       .  S
Fe1091     O1096   2.035       .  S
Fe1091     O1102   1.953       .  S
Fe1092     O1095   2.074       .  S
Fe1092     O1099   2.083       .  S
Fe1092     O1103   2.072       .  S
Fe1092     O1108   2.075       .  S
Fe1092     O1102   1.969       .  S
Fe1093     O1111   2.061       .  S
Fe1093     O1098   2.047       .  S
Fe1093     O1105   2.072       .  S
Fe1093     O1094   2.080       .  S
Fe1093     O1102   1.978       .  S
O1094      C1101   1.270       .  A
O1095      C1109   1.270       .  A
O1096      C1101   1.264       .  A
O1097      C1100   1.267       .  A
O1098      C1110   1.266       .  A
O1099      C1112   1.269       .  A
C1100      O1105   1.267       .  A
C1101      C3031   1.478   1_455  S
O1103      C1106   1.270       .  A
O1104      C1106   1.269       .  A
C1106      C1179   1.487       .  S
O1107      C1112   1.261       .  A
O1108      C1110   1.273       .  A
C1109      O1111   1.269       .  A
C1109      C1316   1.494       .  S
C1110      C1279   1.481       .  S
C1112      C1226   1.492       .  S
Fe1113     O1129   2.049       .  S
Fe1113     O1119   2.052       .  S
Fe1113     O1126   2.062       .  S
Fe1113     O1118   2.047       .  S
Fe1113     O1124   1.972       .  S
Fe1114     O1117   2.078       .  S
Fe1114     O1121   2.086       .  S
Fe1114     O1125   2.075       .  S
Fe1114     O1130   2.076       .  S
Fe1114     O1124   1.979       .  S
Fe1115     O1133   2.066       .  S
Fe1115     O1120   2.069       .  S
Fe1115     O1127   2.089       .  S
Fe1115     O1116   2.078       .  S
Fe1115     O1124   1.984       .  S
O1116      C1123   1.269       .  A
O1117      C1131   1.269       .  A
O1118      C1123   1.267       .  A
O1119      C1122   1.267       .  A
O1120      C1132   1.270       .  A
O1121      C1134   1.272       .  A
C1122      O1127   1.272       .  A
C1122      C3021   1.488   1_455  S
C1123      C1139   1.487       .  S
O1125      C1128   1.268       .  A
O1126      C1128   1.267       .  A
C1128      C1219   1.478       .  S
O1129      C1134   1.265       .  A
O1130      C1132   1.271       .  A
C1131      O1133   1.268       .  A
C1131      C1289   1.510       .  S
C1132      C1376   1.498       .  S
C1134      C1189   1.486       .  S
C1135      C1136   1.407       .  A
C1135      C1140   1.403       .  A
C1135     Br1142   1.928       .  S
C1136      C1137   1.406       .  A
C1137      C1138   1.411       .  A
C1138      C1139   1.416       .  A
C1138     Br1143   1.927       .  S
C1139      C1140   1.412       .  A
C1140     Br1141   1.930       .  S
C1145      C1146   1.415       .  A
C1145      C1150   1.414       .  A
C1146      C1147   1.413       .  A
C1147      C1148   1.406       .  A
C1147     Br1154   1.931       .  S
C1148      C1149   1.411       .  A
C1148     Br1153   1.933       .  S
C1149      C2994   1.488       .  S
C1149      C1150   1.412       .  A
C1150     Br3023   1.926       .  S
Br1151     C3022   1.926   1_455  S
C1155      C1156   1.411       .  A
C1155      C1160   1.408       .  A
C1155     Br1162   1.925       .  S
C1156      C1157   1.407       .  A
C1157      C1158   1.402       .  A
C1157     Br1164   1.929       .  S
C1158      C1159   1.412       .  A
C1158     Br1163   1.931       .  S
C1159      C2973   1.478       .  S
C1159      C1160   1.410       .  A
C1160     Br3033   1.927       .  S
Br1161     C3032   1.927   1_455  S
C1165      C1166   1.405       .  A
C1165      C1170   1.416       .  A
C1165     Br1172   1.928       .  S
C1166      C1167   1.404       .  A
C1167      C1168   1.413       .  A
C1167     Br1174   1.931       .  S
C1168      C1169   1.426       .  A
C1168     Br1173   1.935       .  S
C1169      C1170   1.428       .  A
C1170     Br1171   1.934       .  S
C1175      C3048   1.416       .  A
C1175      C1180   1.407   1_655  A
C1175     Br1182   1.935       .  S
C1176      C3047   1.416       .  A
C1176      C1177   1.417       .  A
C1177      C1178   1.412       .  A
C1177     Br1184   1.933       .  S
C1178      C3051   1.412       .  A
C1178     Br1183   1.933       .  S
C1179      C3050   1.412       .  A
C1179      C1180   1.412       .  A
C1180     Br1181   1.932       .  S
C1185      C1186   1.418       .  A
C1185      C3062   1.411       .  A
C1185     Br1192   1.935       .  S
C1186      C1187   1.420       .  A
C1187      C3060   1.408       .  A
C1187     Br1194   1.938       .  S
C1188      C3059   1.408   1_455  A
C1188      C1189   1.412       .  A
C1188     Br1193   1.932       .  S
C1189      C1190   1.411       .  A
C1190      C3057   1.411   1_455  A
C1190     Br1191   1.932       .  S
C1195      C1196   1.422       .  A
C1195     Br1202   1.929       .  S
C1197      C1198   1.408       .  A
C1197     Br1204   1.941       .  S
C1198      C1199   1.410       .  A
C1198     Br1203   1.931       .  S
C1199      C1200   1.414       .  A
C1200     Br1201   1.933       .  S
C1205      C1206   1.415       .  A
C1205      C1210   1.416       .  A
C1205     Br1212   1.929       .  S
C1206      C1207   1.409       .  A
C1207      C1208   1.410       .  A
C1207     Br1214   1.931       .  S
C1208      C1209   1.414       .  A
C1208     Br1213   1.928       .  S
C1209      C1210   1.411       .  A
C1210     Br1211   1.925       .  S
C1215      C1216   1.425       .  A
C1215      C1220   1.408       .  A
C1215     Br1222   1.938       .  S
C1216      C1217   1.426       .  A
C1217      C1218   1.412       .  A
C1217     Br1224   1.934       .  S
C1218      C1219   1.405       .  A
C1218     Br1223   1.934       .  S
C1219      C1220   1.402       .  A
C1220     Br1221   1.923       .  S
C1225      C1226   1.421       .  A
C1225     Br1232   1.933       .  S
C1226      C1227   1.424   1_565  A
C1227     Br1234   1.936   1_545  S
C1228      C1229   1.403       .  A
C1228     Br1233   1.936       .  S
C1229      C1230   1.407       .  A
C1230     Br1231   1.934       .  S
C1235      C1704   1.402       .  A
C1235      C1240   1.391       .  A
C1235     Br1242   1.936       .  S
C1236      C1703   1.403       .  A
C1236      C1237   1.407       .  A
C1237      C1238   1.410       .  A
C1237     Br1244   1.925       .  S
C1238      C1239   1.408       .  A
C1238     Br1243   1.925       .  S
C1239      C1708   1.412       .  A
C1240      C1707   1.411       .  A
C1240     Br1241   1.928   1_556  S
C1245      C1246   1.406       .  A
C1245      C1250   1.403       .  A
C1245     Br1252   1.932       .  S
C1246      C1247   1.409       .  A
C1247      C1248   1.412       .  A
C1247     Br1254   1.927       .  S
C1248      C1249   1.414       .  A
C1248     Br1253   1.925       .  S
C1249      C1250   1.414       .  A
C1250     Br1251   1.926       .  S
C1255      C1256   1.419       .  A
C1255      C1260   1.411       .  A
C1255     Br3134   1.932       .  S
C1256      C1257   1.421       .  A
C1257      C1258   1.408       .  A
C1257     Br1264   1.933       .  S
C1258      C1259   1.408       .  A
C1258     Br1263   1.935       .  S
C1259      C1260   1.406       .  A
C1260     Br1261   1.929       .  S
Br1262     C3127   1.932   1_455  S
C1265      C1266   1.417       .  A
C1265      C1270   1.417       .  A
C1265     Br3144   1.934       .  S
C1266      C1267   1.412       .  A
C1267      C1268   1.408       .  A
C1267     Br1274   1.935       .  S
C1268      C1269   1.419       .  A
C1268     Br1273   1.937       .  S
C1269      C1270   1.417       .  A
C1270     Br1271   1.931       .  S
Br1272     C3137   1.934   1_455  S
C1275      C1276   1.420       .  A
C1275      C1280   1.413       .  A
C1275     Br3154   1.933   1_455  S
C1276      C1277   1.423       .  A
C1277      C1278   1.402       .  A
C1277     Br1284   1.940       .  S
C1278      C1279   1.407       .  A
C1278     Br1283   1.936       .  S
C1279      C1280   1.413       .  A
C1280     Br3153   1.936       .  S
Br1281     C3152   1.936       .  S
Br1282     C3147   1.933       .  S
C1285      C1286   1.406       .  A
C1285      C1290   1.412       .  A
C1285     Br1292   1.933       .  S
C1286      C1287   1.406       .  A
C1287      C1288   1.412       .  A
C1287     Br3166   1.934       .  S
C1288      C1289   1.426       .  A
C1288     Br1293   1.936       .  S
C1289      C1290   1.427       .  A
C1290     Br1291   1.935       .  S
Br1294     C3159   1.934       .  S
C1295      C1296   1.403       .  A
C1295      C1300   1.404       .  A
C1295     Br1302   1.932       .  S
C1296      C1297   1.402       .  A
C1297      C1298   1.407       .  A
C1297     Br1304   1.931       .  S
C1298      C1299   1.420       .  A
C1299      C1300   1.419       .  A
C1300     Br1301   1.934       .  S
C1305      C1306   1.428       .  A
C1305      C1310   1.414       .  A
C1306      C1307   1.424       .  A
C1307      C1308   1.412       .  A
C1307     Br1314   1.935       .  S
C1308      C1309   1.405       .  A
C1308     Br1313   1.930       .  S
C1309      C1310   1.407       .  A
C1310     Br1311   1.935       .  S
C1315      C1316   1.420       .  A
C1315      C1320   1.408       .  A
C1315     Br1322   1.933       .  S
C1316      C1317   1.421       .  A
C1317      C1318   1.407       .  A
C1318      C1319   1.405       .  A
C1319      C1320   1.407       .  A
C1320     Br1321   1.932       .  S
C1325      C1326   1.413       .  A
C1325      C1330   1.412       .  A
C1325     Br1332   1.923       .  S
C1326      C1327   1.420       .  A
C1327      C1328   1.401       .  A
C1327     Br1334   1.937       .  S
C1328      C1329   1.401       .  A
C1328     Br1333   1.933       .  S
C1329      C1330   1.407       .  A
C1330     Br1331   1.926       .  S
C1335      C1336   1.409       .  A
C1335      C1340   1.407       .  A
C1335     Br1342   1.932       .  S
C1336      C1337   1.414       .  A
C1337      C1338   1.412       .  A
C1337     Br1344   1.930       .  S
C1338      C1339   1.409       .  A
C1338     Br1343   1.925       .  S
C1339      C1340   1.412       .  A
C1340     Br1341   1.928       .  S
C1345      C1346   1.414       .  A
C1345      C1350   1.417       .  A
C1345     Br1352   1.927       .  S
C1346      C1347   1.414       .  A
C1347      C1348   1.407       .  A
C1347     Br1354   1.934       .  S
C1348      C1349   1.408       .  A
C1348     Br1353   1.927       .  S
C1349      C1350   1.409       .  A
C1350     Br1351   1.926       .  S
C1355      C1356   1.403       .  A
C1355      C1360   1.408       .  A
C1355     Br1362   1.935       .  S
C1356      C1357   1.407       .  A
C1357      C1358   1.415       .  A
C1357     Br1364   1.931       .  S
C1358      C1359   1.421       .  A
C1358     Br1363   1.930       .  S
C1359      C1360   1.427       .  A
C1360     Br1361   1.937       .  S
C1365      C1366   1.407       .  A
C1365      C1370   1.412       .  A
C1365     Br1372   1.937       .  S
C1366      C1367   1.408       .  A
C1367      C1368   1.417       .  A
C1367     Br1374   1.930       .  S
C1368      C1369   1.424       .  A
C1368     Br1373   1.932       .  S
C1369      C1370   1.430       .  A
C1370     Br1371   1.940       .  S
C1375      C1376   1.419       .  A
C1375      C1380   1.408       .  A
C1375     Br1382   1.937       .  S
C1376      C1377   1.421       .  A
C1377      C1378   1.414       .  A
C1377     Br1384   1.932       .  S
C1378      C1379   1.407       .  A
C1378     Br1383   1.929       .  S
C1379      C1380   1.412       .  A
C1380     Br1381   1.937       .  S
C1385      C1386   1.411       .  A
C1385      C1390   1.414       .  A
C1385     Br1392   1.923       .  S
C1386      C1387   1.408       .  A
C1387      C1388   1.394       .  A
C1387     Br1394   1.926       .  S
C1388      C1389   1.405       .  A
C1388     Br1393   1.930       .  S
C1389      C1390   1.408       .  A
C1390     Br1391   1.925       .  S
C1395      C1396   1.406       .  A
C1395      C1400   1.404       .  A
C1395     Br1402   1.931       .  S
C1396      C1397   1.410       .  A
C1397      C1398   1.413       .  A
C1397     Br1404   1.928       .  S
C1398      C1399   1.415       .  A
C1398     Br1403   1.926       .  S
C1399      C1400   1.415       .  A
C1400     Br1401   1.932       .  S
Fe1405     O1421   2.076       .  S
Fe1405     O1411   2.037       .  S
Fe1405     O1418   2.017       .  S
Fe1405     O1410   2.056       .  S
Fe1405     O1416   1.936       .  S
Fe1406     O1409   2.103       .  S
Fe1406     O1413   2.085       .  S
Fe1406     O1417   2.132       .  S
Fe1406     O1422   2.075       .  S
Fe1406     O1416   1.953       .  S
Fe1407     O1425   2.062       .  S
Fe1407     O1412   2.073       .  S
Fe1407     O1419   2.094       .  S
Fe1407     O1408   2.073       .  S
Fe1407     O1416   1.961       .  S
O1408      C1415   1.267       .  A
O1409      C1423   1.277       .  A
O1410      C1415   1.267       .  A
O1411      C1414   1.266       .  A
O1412      C1424   1.272       .  A
O1413      C1426   1.270       .  A
C1414      O1419   1.273       .  A
C1414      C1857   1.465       .  S
C1415      C1864   1.476       .  S
O1417      C1420   1.281       .  A
O1418      C1420   1.260       .  A
C1420      C1847   1.487       .  S
O1421      C1426   1.266       .  A
O1422      C1424   1.273       .  A
C1423      O1425   1.270       .  A
C1423      C1814   1.491       .  S
C1424      C1824   1.474       .  S
C1426      C1837   1.513       .  S
Fe1427     O1443   2.035       .  S
Fe1427     O1433   2.062       .  S
Fe1427     O1440   2.062       .  S
Fe1427     O1432   2.053       .  S
Fe1427     O1438   1.941       .  S
Fe1428     O1431   2.051       .  S
Fe1428     O1439   2.061       .  S
Fe1428     O1444   2.100       .  S
Fe1429     O1447   2.074       .  S
Fe1429     O1434   2.065       .  S
Fe1429     O1441   2.077       .  S
Fe1429     O1430   2.073       .  S
Fe1429     O1438   1.963       .  S
O1430      C1437   1.265       .  A
O1431      C1445   1.264       .  A
O1432      C1437   1.265       .  A
O1433      C1436   1.273       .  A
O1435      C1448   1.270       .  A
C1436      O1441   1.273       .  A
C1436      C1804   1.482       .  S
C1437      C1854   1.469       .  S
O1440      C1442   1.270       .  A
C1442      C1797   1.463       .  S
O1443      C1448   1.262       .  A
O1444      C1446   1.276       .  A
C1445      C1767   1.483       .  S
C1446      C1774   1.512       .  S
C1448      C1787   1.478       .  S
Fe1449     O1465   2.070       .  S
Fe1449     O1455   2.052       .  S
Fe1449     O1462   2.044       .  S
Fe1449     O1454   2.056       .  S
Fe1449     O1460   1.968       .  S
Fe1450     O1453   2.069       .  S
Fe1450     O3329   2.072       .  S
Fe1450     O3333   2.080       .  S
Fe1450     O1466   2.070       .  S
Fe1450     O3332   1.978       .  S
Fe1451     O1469   2.074       .  S
Fe1451     O1456   2.067       .  S
Fe1451     O1463   2.086       .  S
Fe1451     O1452   2.089       .  S
Fe1451     O1460   1.988       .  S
O1452      C1459   1.271       .  A
O1453      C1467   1.271       .  A
O1454      C1459   1.267       .  A
O1455      C1458   1.268       .  A
O1456      C3340   1.269       .  A
O1457     Fe3322   2.072       .  S
O1457      C1470   1.268       .  A
C1458      O1463   1.271       .  A
C1458      C1867   1.488       .  S
C1459      C1807   1.488       .  S
O1460     Fe3322   1.978       .  S
O1461     Fe3322   2.080       .  S
O1461      C1464   1.270       .  A
O1462      C1464   1.264       .  A
C1464      C1744   1.490       .  S
O1465      C1470   1.269       .  A
O1466      C1468   1.268       .  A
C1467      O3341   1.271       .  A
C1467      C1734   1.494       .  S
C1468      O3328   1.269       .  A
C1468      C1724   1.500       .  S
O1469      C3339   1.271   1_455  A
C1470      C1754   1.483       .  S
Fe1471     O1487   2.021       .  S
Fe1471     O1477   2.053       .  S
Fe1471     O1484   2.072       .  S
Fe1471     O1476   2.035       .  S
Fe1471     O1482   1.938       .  S
Fe1472     O1479   2.090       .  S
Fe1472     O1483   2.082       .  S
Fe1472     O1482   1.954       .  S
Fe1473     O1491   2.068       .  S
Fe1473     O1478   2.061       .  S
Fe1473     O1485   2.069       .  S
Fe1473     O1474   2.066       .  S
O1474      C1481   1.267       .  A
O1475      C1489   1.273       .  A
O1478      C1490   1.266       .  A
O1479      C1492   1.270       .  A
C1480      O1485   1.268       .  A
C1480      C1714   1.475       .  S
C1481      C1704   1.455       .  S
O1483      C1486   1.273       .  A
O1484      C1486   1.268       .  A
C1486      C1827   1.498       .  S
O1487      C1492   1.261       .  A
O1488      C1490   1.270       .  A
C1489      O1491   1.271       .  A
C1489      C1697   1.473       .  S
C1490      C1684   1.496       .  S
C1492      C1764   1.461       .  S
Fe1493     O1509   2.038       .  S
Fe1493     O1499   2.066       .  S
Fe1493     O1506   2.076       .  S
Fe1493     O1498   2.046       .  S
Fe1493     O1504   1.965       .  S
Fe1494     O1501   2.098       .  S
Fe1494     O1505   2.073       .  S
Fe1494     O1504   1.976       .  S
Fe1495     O1513   2.072       .  S
Fe1495     O1500   2.071       .  S
Fe1495     O1507   2.098       .  S
Fe1495     O1496   2.088       .  S
O1496      C1503   1.271       .  A
O1497      C1511   1.269       .  A
O1500      C1512   1.271       .  A
O1501      C1514   1.272       .  A
C1502      O1507   1.274       .  A
C1502      C1677   1.492       .  S
C1503      C1717   1.489       .  S
O1505      C1508   1.269       .  A
O1506      C1508   1.271       .  A
C1508      C1777   1.485       .  S
O1509      C1514   1.263       .  A
O1510      C1512   1.276       .  A
C1511      O1513   1.271       .  A
C1511      C1654   1.502       .  S
C1512      C1667   1.503       .  S
C1514      C1737   1.496       .  S
Fe1515     O1531   2.081       .  S
Fe1515     O1521   2.033       .  S
Fe1515     O1528   2.026       .  S
Fe1515     O1520   2.068       .  S
Fe1515     O1526   1.945       .  S
Fe1516     O1523   2.081       .  S
Fe1516     O1527   2.098       .  S
Fe1516     O1526   1.962       .  S
Fe1517     O1535   2.076       .  S
Fe1517     O1522   2.083       .  S
Fe1517     O1529   2.077       .  S
Fe1517     O1518   2.084       .  S
O1518      C1525   1.274       .  A
O1519      C1533   1.273       .  A
O1522      C1534   1.273       .  A
O1523      C1536   1.273       .  A
C1524      O1529   1.268       .  A
C1524      C1707   1.463       .  S
C1525      C1674   1.490       .  S
O1527      C1530   1.272       .  A
O1528      C1530   1.260       .  A
C1530      C1727   1.477       .  S
O1531      C1536   1.273       .  A
O1532      C1534   1.269       .  A
C1533      O1535   1.270       .  A
C1533      C1637   1.510       .  S
C1534      C1644   1.491       .  S
C1536      C1817   1.484       .  S
Fe1537     O1553   2.058       .  S
Fe1537     O1543   2.057       .  S
Fe1537     O1550   2.053       .  S
Fe1537     O1542   2.055       .  S
Fe1537     O1548   1.968       .  S
Fe1538     O1541   2.079       .  S
Fe1538     O1545   2.092       .  S
Fe1538     O1549   2.110       .  S
Fe1538     O1554   2.088       .  S
Fe1538     O1548   1.988       .  S
Fe1539     O1557   2.077       .  S
Fe1539     O1544   2.036       .  S
Fe1539     O1551   2.061       .  S
Fe1539     O1540   2.085       .  S
Fe1539     O1548   1.982       .  S
O1540      C1547   1.270       .  A
O1541      C1555   1.273       .  A
O1542      C1547   1.268       .  A
O1543      C1546   1.267       .  A
O1544      C1556   1.263       .  A
O1545      C1558   1.272       .  A
C1546      O1551   1.264       .  A
C1546      C1624   1.477       .  S
O1549      C1552   1.275       .  A
O1550      C1552   1.265       .  A
C1552      C1664   1.520       .  S
O1553      C1558   1.267       .  A
O1554      C1556   1.274       .  A
C1555      O1557   1.272       .  A
C1555      C1834   1.487       .  S
C1556      C1794   1.484       .  S
C1558      C1634   1.484       .  S
Fe1559     O1575   2.030       .  S
Fe1559     O1565   2.055       .  S
Fe1559     O1572   2.062       .  S
Fe1559     O1564   2.031       .  S
Fe1559     O1570   1.958       .  S
Fe1560     O1563   2.069       .  S
Fe1560     O1567   2.087       .  S
Fe1560     O1571   2.064       .  S
Fe1560     O1576   2.073       .  S
Fe1560     O1570   1.972       .  S
Fe1561     O1579   2.061       .  S
Fe1561     O1566   2.054       .  S
Fe1561     O1573   2.076       .  S
Fe1561     O1562   2.085       .  S
Fe1561     O1570   1.984       .  S
O1562      C1569   1.270       .  A
O1563      C1577   1.268       .  A
O1564      C1569   1.264       .  A
O1565      C1568   1.267       .  A
O1566      C1578   1.267       .  A
O1567      C1580   1.271       .  A
C1568      O1573   1.268       .  A
C1569      C3499   1.477   1_455  S
O1571      C1574   1.266       .  A
O1572      C1574   1.268       .  A
C1574      C1647   1.481       .  S
O1575      C1580   1.261       .  A
O1576      C1578   1.271       .  A
C1577      O1579   1.268       .  A
C1577      C1784   1.490       .  S
C1578      C1747   1.499       .  S
C1580      C1694   1.490       .  S
Fe1581     O1597   2.054       .  S
Fe1581     O1587   2.053       .  S
Fe1581     O1594   2.062       .  S
Fe1581     O1586   2.049       .  S
Fe1581     O1592   1.974       .  S
Fe1582     O1585   2.068       .  S
Fe1582     O1589   2.085       .  S
Fe1582     O1593   2.071       .  S
Fe1582     O1598   2.076       .  S
Fe1582     O1592   1.977       .  S
Fe1583     O1601   2.066       .  S
Fe1583     O1588   2.071       .  S
Fe1583     O1595   2.086       .  S
Fe1583     O1584   2.076       .  S
Fe1583     O1592   1.985       .  S
O1584      C1591   1.268       .  A
O1585      C1599   1.267       .  A
O1586      C1591   1.266       .  A
O1587      C1590   1.268       .  A
O1588      C1600   1.271       .  A
O1589      C1602   1.271       .  A
C1590      O1595   1.272       .  A
C1590      C3489   1.486   1_455  S
C1591      C1607   1.488       .  S
O1593      C1596   1.268       .  A
O1594      C1596   1.268       .  A
C1596      C1687   1.474       .  S
O1597      C1602   1.265       .  A
O1598      C1600   1.272       .  A
C1599      O1601   1.267       .  A
C1599      C1757   1.507       .  S
C1600      C1844   1.495       .  S
C1602      C1657   1.489       .  S
C1603      C1604   1.407       .  A
C1603      C1608   1.403       .  A
C1603     Br1610   1.927       .  S
C1604      C1605   1.406       .  A
C1605      C1606   1.412       .  A
C1606      C1607   1.417       .  A
C1606     Br1611   1.927       .  S
C1607      C1608   1.412       .  A
C1608     Br1609   1.931       .  S
C1613      C1614   1.414       .  A
C1613      C1618   1.413       .  A
C1614      C1615   1.411       .  A
C1615      C1616   1.405       .  A
C1615     Br1622   1.932       .  S
C1616      C1617   1.412       .  A
C1616     Br1621   1.931       .  S
C1617      C3462   1.486       .  S
C1617      C1618   1.413       .  A
C1618     Br3491   1.927       .  S
Br1619     C3490   1.927   1_455  S
C1623      C1624   1.412       .  A
C1623      C1628   1.408       .  A
C1623     Br1630   1.925       .  S
C1624      C1625   1.407       .  A
C1625      C1626   1.402       .  A
C1625     Br1632   1.928       .  S
C1626      C1627   1.411       .  A
C1626     Br1631   1.931       .  S
C1627      C3441   1.477       .  S
C1627      C1628   1.409       .  A
C1628     Br3501   1.927       .  S
Br1629     C3500   1.927   1_455  S
C1633      C1634   1.405       .  A
C1633      C1638   1.414       .  A
C1633     Br1640   1.928       .  S
C1634      C1635   1.403       .  A
C1635      C1636   1.412       .  A
C1635     Br1642   1.931       .  S
C1636      C1637   1.425       .  A
C1636     Br1641   1.933   1_556  S
C1637      C1638   1.427       .  A
C1638     Br1639   1.934       .  S
C1643      C3516   1.417       .  A
C1643      C1648   1.405   1_655  A
C1643     Br1650   1.936       .  S
C1644      C3515   1.417       .  A
C1644      C1645   1.420       .  A
C1645      C1646   1.411       .  A
C1645     Br1652   1.934       .  S
C1646      C3519   1.410       .  A
C1646     Br1651   1.933       .  S
C1647      C3518   1.410       .  A
C1647      C1648   1.408       .  A
C1648     Br1649   1.928       .  S
C1653      C1654   1.420       .  A
C1653      C3530   1.411       .  A
C1653     Br1660   1.936       .  S
C1654      C1655   1.422       .  A
C1655      C3528   1.411       .  A
C1655     Br1662   1.938   1_556  S
C1656      C3527   1.411   1_455  A
C1656      C1657   1.412       .  A
C1656     Br1661   1.931       .  S
C1657      C1658   1.410       .  A
C1658      C3525   1.411   1_455  A
C1658     Br1659   1.932       .  S
C1663      C1664   1.421       .  A
C1663     Br1670   1.928       .  S
C1665      C1666   1.412       .  A
C1665     Br1672   1.940       .  S
C1666      C1667   1.413       .  A
C1666     Br1671   1.933       .  S
C1667      C1668   1.416       .  A
C1668     Br1669   1.934       .  S
C1673      C1674   1.415       .  A
C1673      C1678   1.416       .  A
C1673     Br1680   1.929       .  S
C1674      C1675   1.410       .  A
C1675      C1676   1.410       .  A
C1675     Br1682   1.931   1_556  S
C1676      C1677   1.413       .  A
C1676     Br1681   1.928   1_556  S
C1677      C1678   1.411       .  A
C1678     Br1679   1.924       .  S
C1683      C1684   1.420       .  A
C1683      C1688   1.407       .  A
C1683     Br1690   1.933   1_556  S
C1684      C1685   1.423       .  A
C1685      C1686   1.409       .  A
C1685     Br1692   1.934       .  S
C1686      C1687   1.405       .  A
C1686     Br1691   1.931       .  S
C1687      C1688   1.402       .  A
C1688     Br1689   1.923       .  S
C1693      C1694   1.418       .  A
C1693     Br1700   1.935       .  S
C1694      C1695   1.423   1_565  A
C1695     Br1702   1.935   1_545  S
C1696      C1697   1.404       .  A
C1696     Br1701   1.937       .  S
C1697      C1698   1.410       .  A
C1698     Br1699   1.933       .  S
C1703      C1708   1.393       .  A
C1703     Br1710   1.937       .  S
C1704      C1705   1.407       .  A
C1705      C1706   1.409       .  A
C1705     Br1712   1.927       .  S
C1706      C1707   1.409       .  A
C1706     Br1711   1.925       .  S
C1708     Br1709   1.927       .  S
C1713      C1714   1.405       .  A
C1713      C1718   1.403       .  A
C1713     Br1720   1.932   1_556  S
C1714      C1715   1.409       .  A
C1715      C1716   1.412       .  A
C1715     Br1722   1.928       .  S
C1716      C1717   1.415       .  A
C1716     Br1721   1.926       .  S
C1717      C1718   1.415       .  A
C1718     Br1719   1.927   1_556  S
C1723      C1724   1.422       .  A
C1723      C1728   1.411       .  A
C1723     Br3602   1.934       .  S
C1724      C1725   1.422       .  A
C1725      C1726   1.408       .  A
C1725     Br1732   1.935       .  S
C1726      C1727   1.408       .  A
C1726     Br1731   1.936       .  S
C1727      C1728   1.406       .  A
C1728     Br1729   1.930       .  S
Br1730     C3595   1.934   1_455  S
C1733      C1734   1.416       .  A
C1733      C1738   1.416       .  A
C1733     Br3612   1.934       .  S
C1734      C1735   1.415       .  A
C1735      C1736   1.407       .  A
C1735     Br1742   1.935       .  S
C1736      C1737   1.416       .  A
C1736     Br1741   1.937       .  S
C1737      C1738   1.417       .  A
C1738     Br1739   1.931       .  S
Br1740     C3605   1.934   1_455  S
C1743      C1744   1.414       .  A
C1743      C1748   1.412       .  A
C1743     Br3622   1.936       .  S
C1744      C1745   1.415       .  A
C1745      C1746   1.407       .  A
C1745     Br1752   1.935       .  S
C1746      C1747   1.420       .  A
C1746     Br1751   1.939       .  S
C1747      C1748   1.423       .  A
C1748     Br3621   1.940       .  S
Br1749     C3620   1.940       .  S
Br1750     C3615   1.936       .  S
C1753      C1754   1.404       .  A
C1753      C1758   1.409       .  A
C1753     Br1760   1.924       .  S
C1754      C1755   1.405       .  A
C1755      C1756   1.413       .  A
C1755     Br3634   1.933       .  S
C1756      C1757   1.427       .  A
C1756     Br1761   1.936       .  S
C1757      C1758   1.426       .  A
C1758     Br1759   1.938       .  S
Br1762     C3627   1.933       .  S
C1763      C1764   1.404       .  A
C1763      C1768   1.404       .  A
C1763     Br1770   1.932       .  S
C1764      C1765   1.402       .  A
C1765      C1766   1.405       .  A
C1765     Br1772   1.931       .  S
C1766      C1767   1.418       .  A
C1767      C1768   1.418       .  A
C1768     Br1769   1.934       .  S
C1773      C1774   1.429       .  A
C1773      C1778   1.414       .  A
C1774      C1775   1.424       .  A
C1775      C1776   1.412       .  A
C1775     Br1782   1.935       .  S
C1776      C1777   1.404       .  A
C1776     Br1781   1.930       .  S
C1777      C1778   1.406       .  A
C1778     Br1779   1.934       .  S
C1783      C1784   1.418       .  A
C1783      C1788   1.407       .  A
C1783     Br1790   1.934       .  S
C1784      C1785   1.417       .  A
C1785      C1786   1.408       .  A
C1786      C1787   1.408       .  A
C1787      C1788   1.410       .  A
C1788     Br1789   1.935       .  S
C1793      C1794   1.414       .  A
C1793      C1798   1.410       .  A
C1793     Br1800   1.920       .  S
C1794      C1795   1.421       .  A
C1795      C1796   1.400       .  A
C1795     Br1802   1.939       .  S
C1796      C1797   1.400       .  A
C1796     Br1801   1.933       .  S
C1797      C1798   1.405       .  A
C1798     Br1799   1.928       .  S
C1803      C1804   1.408       .  A
C1803      C1808   1.406       .  A
C1803     Br1810   1.934       .  S
C1804      C1805   1.413       .  A
C1805      C1806   1.413       .  A
C1805     Br1812   1.929       .  S
C1806      C1807   1.411       .  A
C1806     Br1811   1.925       .  S
C1807      C1808   1.414       .  A
C1808     Br1809   1.928       .  S
C1813      C1814   1.414       .  A
C1813      C1818   1.417       .  A
C1813     Br1820   1.927       .  S
C1814      C1815   1.416       .  A
C1815      C1816   1.407       .  A
C1815     Br1822   1.934       .  S
C1816      C1817   1.407       .  A
C1816     Br1821   1.930       .  S
C1817      C1818   1.409       .  A
C1818     Br1819   1.926       .  S
C1823      C1824   1.403       .  A
C1823      C1828   1.406       .  A
C1823     Br1830   1.934       .  S
C1824      C1825   1.406       .  A
C1825      C1826   1.414       .  A
C1825     Br1832   1.930       .  S
C1826      C1827   1.420       .  A
C1826     Br1831   1.930       .  S
C1827      C1828   1.424       .  A
C1828     Br1829   1.935       .  S
C1833      C1834   1.407       .  A
C1833      C1838   1.412       .  A
C1833     Br1840   1.938       .  S
C1834      C1835   1.407       .  A
C1835      C1836   1.415       .  A
C1835     Br1842   1.931       .  S
C1836      C1837   1.425       .  A
C1836     Br1841   1.933       .  S
C1837      C1838   1.430       .  A
C1838     Br1839   1.941       .  S
C1843      C1844   1.416       .  A
C1843      C1848   1.408       .  A
C1843     Br1850   1.938       .  S
C1844      C1845   1.419       .  A
C1845      C1846   1.415       .  A
C1845     Br1852   1.931       .  S
C1846      C1847   1.409       .  A
C1846     Br1851   1.928       .  S
C1847      C1848   1.415       .  A
C1848     Br1849   1.938       .  S
C1853      C1854   1.410       .  A
C1853      C1858   1.413       .  A
C1853     Br1860   1.923       .  S
C1854      C1855   1.407       .  A
C1855      C1856   1.392       .  A
C1855     Br1862   1.924       .  S
C1856      C1857   1.404       .  A
C1856     Br1861   1.927       .  S
C1857      C1858   1.408       .  A
C1858     Br1859   1.925       .  S
C1863      C1864   1.406       .  A
C1863      C1868   1.404       .  A
C1863     Br1870   1.930       .  S
C1864      C1865   1.409       .  A
C1865      C1866   1.413       .  A
C1865     Br1872   1.929       .  S
C1866      C1867   1.415       .  A
C1866     Br1871   1.926       .  S
C1867      C1868   1.413       .  A
C1868     Br1869   1.930       .  S
Fe1873     O1889   2.075       .  S
Fe1873     O1879   2.033       .  S
Fe1873     O1886   2.018       .  S
Fe1873     O1878   2.054       .  S
Fe1873     O1884   1.942       .  S
Fe1874     O1877   2.093       .  S
Fe1874     O1881   2.092       .  S
Fe1874     O1885   2.126       .  S
Fe1874     O1890   2.079       .  S
Fe1874     O1884   1.956       .  S
Fe1875     O1893   2.068       .  S
Fe1875     O1880   2.074       .  S
Fe1875     O1887   2.097       .  S
Fe1875     O1876   2.074       .  S
Fe1875     O1884   1.967       .  S
O1876      C1883   1.267       .  A
O1877      C1891   1.274       .  A
O1878      C1883   1.267       .  A
O1879      C1882   1.265       .  A
O1880      C1892   1.273       .  A
O1881      C1894   1.271       .  A
C1882      O1887   1.274       .  A
C1882      C2325   1.466       .  S
C1883      C2332   1.478       .  S
O1885      C1888   1.280       .  A
O1886      C1888   1.260       .  A
C1888      C2315   1.483       .  S
O1889      C1894   1.266       .  A
O1890      C1892   1.275       .  A
C1891      O1893   1.271       .  A
C1891      C2282   1.490       .  S
C1892      C2292   1.477       .  S
C1894      C2305   1.514       .  S
Fe1895     O1911   2.037       .  S
Fe1895     O1901   2.067       .  S
Fe1895     O1908   2.070       .  S
Fe1895     O1900   2.054       .  S
Fe1895     O1906   1.948       .  S
Fe1896     O1899   2.050   1_565  S
Fe1896     O2839   2.082       .  S
Fe1896     O1907   2.064       .  S
Fe1896     O1912   2.097   1_565  S
Fe1896     O2842   1.963       .  S
Fe1897     O1915   2.078       .  S
Fe1897     O1902   2.068       .  S
Fe1897     O1909   2.074       .  S
Fe1897     O1898   2.072       .  S
Fe1897     O1906   1.967       .  S
O1898      C1905   1.266       .  A
O1899      C1913   1.264       .  A
O1900      C1905   1.266       .  A
O1901      C1904   1.273       .  A
O1902      C2850   1.268       .  A
O1903     Fe2832   2.082       .  S
O1903      C1916   1.269       .  A
C1904      O1909   1.272       .  A
C1904      C2272   1.482       .  S
C1905      C2322   1.471       .  S
O1906     Fe2832   1.963       .  S
O1907      C2846   1.271       .  A
O1908      C1910   1.272       .  A
C1910      O2843   1.271       .  A
C1910      C2265   1.468       .  S
O1911      C1916   1.262       .  A
O1912      C1914   1.275   1_545  A
C1913      O2851   1.270   1_545  A
C1913      C2235   1.486       .  S
C1914      O2838   1.268       .  A
C1914      C2242   1.512   1_565  S
O1915      C2849   1.270       .  A
C1916      C2255   1.474       .  S
Fe1917     O1933   2.068       .  S
Fe1917     O1923   2.043       .  S
Fe1917     O1930   2.029       .  S
Fe1917     O1922   2.054       .  S
Fe1917     O1928   1.962       .  S
Fe1918     O1921   2.081   1_455  S
Fe1918     O1934   2.069   1_455  S
Fe1919     O1937   2.067       .  S
Fe1919     O1924   2.074       .  S
Fe1919     O1931   2.093       .  S
Fe1919     O1920   2.085       .  S
Fe1919     O1928   1.985       .  S
O1920      C1927   1.270       .  A
O1921      C1935   1.273       .  A
O1922      C1927   1.265       .  A
O1923      C1926   1.267       .  A
O1925      C1938   1.268       .  A
C1926      O1931   1.273       .  A
C1926      C2335   1.490       .  S
C1927      C2275   1.483       .  S
O1929      C1932   1.271       .  A
O1930      C1932   1.260       .  A
C1932      C2212   1.496       .  S
O1933      C1938   1.268       .  A
O1934      C1936   1.268   1_655  A
C1935      C2202   1.495       .  S
C1936      C2192   1.499   1_455  S
C1938      C2222   1.483       .  S
Fe1939     O1955   2.020       .  S
Fe1939     O1945   2.055       .  S
Fe1939     O1952   2.075       .  S
Fe1939     O1944   2.036       .  S
Fe1939     O1950   1.932       .  S
Fe1940     O2411   2.063   1_554  S
Fe1940     O1947   2.096       .  S
Fe1940     O1951   2.087       .  S
Fe1940     O2424   2.077   1_554  S
Fe1940     O1950   1.949       .  S
Fe1941     O1959   2.065       .  S
Fe1941     O1946   2.068       .  S
Fe1941     O1953   2.072       .  S
Fe1941     O1942   2.070       .  S
Fe1941     O2418   1.962       .  S
O1942      C1949   1.267       .  A
O1943     Fe2408   2.060       .  S
O1943      C1957   1.271       .  A
O1944      C2417   1.266   1_554  A
O1945      C2416   1.268   1_554  A
O1946      C1958   1.267       .  A
O1947      C1960   1.272       .  A
C1948      O2413   1.268       .  A
C1948      O1953   1.269       .  A
C1948      C2182   1.476       .  S
C1949      O2412   1.266       .  A
C1949      C2172   1.459       .  S
O1950     Fe2409   1.958   1_554  S
O1951      C1954   1.273       .  A
O1952      C1954   1.268       .  A
C1954      C2295   1.503       .  S
O1955      C1960   1.261       .  A
O1956     Fe2408   2.074       .  S
O1956      C1958   1.269       .  A
C1957      O1959   1.271       .  A
C1957      C2165   1.468       .  S
C1958      C2152   1.504       .  S
C1960      C2232   1.462       .  S
Fe1961     O1977   2.036       .  S
Fe1961     O1967   2.064       .  S
Fe1961     O1974   2.074       .  S
Fe1961     O1966   2.043       .  S
Fe1961     O1972   1.966       .  S
Fe1962     O2433   2.071   1_554  S
Fe1962     O1969   2.108       .  S
Fe1962     O1973   2.076       .  S
Fe1962     O2446   2.096   1_554  S
Fe1962     O1972   1.975       .  S
Fe1963     O1981   2.073       .  S
Fe1963     O1968   2.072       .  S
Fe1963     O1975   2.095       .  S
Fe1963     O1964   2.088       .  S
Fe1963     O2440   1.983       .  S
O1964      C1971   1.271       .  A
O1965     Fe2430   2.063       .  S
O1965      C1979   1.267       .  A
O1966      C2439   1.265   1_554  A
O1967      C2438   1.269   1_554  A
O1968      C1980   1.270       .  A
O1969      C1982   1.274       .  A
C1970      O2435   1.269       .  A
C1970      O1975   1.273       .  A
C1970      C2145   1.493       .  S
C1971      O2434   1.266       .  A
C1971      C2185   1.488       .  S
O1972     Fe2431   1.982   1_554  S
O1973      C1976   1.270       .  A
O1974      C1976   1.270       .  A
C1976      C2245   1.485       .  S
O1977      C1982   1.262       .  A
O1978     Fe2430   2.088       .  S
O1978      C1980   1.274       .  A
C1979      O1981   1.271       .  A
C1979      C2122   1.496       .  S
C1980      C2135   1.497       .  S
C1982      C2205   1.501       .  S
Fe1983     O1999   2.083       .  S
Fe1983     O1989   2.032       .  S
Fe1983     O1996   2.029       .  S
Fe1983     O1988   2.069       .  S
Fe1983     O1994   1.941       .  S
Fe1984     O2455   2.093   1_554  S
Fe1984     O1991   2.083       .  S
Fe1984     O1995   2.097       .  S
Fe1984     O2468   2.061   1_554  S
Fe1984     O1994   1.958       .  S
Fe1985     O2003   2.080       .  S
Fe1985     O1990   2.085       .  S
Fe1985     O1997   2.081       .  S
Fe1985     O1986   2.086       .  S
Fe1985     O2462   1.968       .  S
O1986      C1993   1.275       .  A
O1987     Fe2452   2.095       .  S
O1987      C2001   1.275       .  A
O1988      C2461   1.272   1_554  A
O1989      C2460   1.262   1_554  A
O1990      C2002   1.273       .  A
O1991      C2004   1.274       .  A
C1992      O2457   1.262       .  A
C1992      O1997   1.268       .  A
C1992      C2175   1.466       .  S
C1993      O2456   1.272       .  A
C1993      C2142   1.489       .  S
O1994     Fe2453   1.966   1_554  S
O1995      C1998   1.271       .  A
O1996      C1998   1.260       .  A
C1998      C2195   1.477       .  S
O1999      C2004   1.274       .  A
O2000     Fe2452   2.063       .  S
O2000      C2002   1.269       .  A
C2001      O2003   1.271       .  A
C2001      C2105   1.516       .  S
C2002      C2112   1.492       .  S
C2004      C2285   1.485       .  S
Fe2005     O2021   2.055       .  S
Fe2005     O2011   2.053       .  S
Fe2005     O2018   2.048       .  S
Fe2005     O2010   2.055       .  S
Fe2005     O2016   1.968       .  S
Fe2006     O2009   2.081       .  S
Fe2006     O2013   2.099       .  S
Fe2006     O2017   2.106       .  S
Fe2006     O2022   2.093       .  S
Fe2006     O2016   1.988       .  S
Fe2007     O2025   2.081       .  S
Fe2007     O2012   2.038       .  S
Fe2007     O2019   2.063       .  S
Fe2007     O2008   2.090       .  S
Fe2007     O2016   1.981       .  S
O2008      C2015   1.271       .  A
O2009      C2023   1.274       .  A
O2010      C2015   1.267       .  A
O2011      C2014   1.267       .  A
O2012      C2024   1.263       .  A
O2013      C2026   1.274       .  A
C2014      O2019   1.265       .  A
C2014      C2092   1.475       .  S
C2015      C3018   1.494       .  S
O2017      C2020   1.275       .  A
O2018      C2020   1.264       .  A
C2020      C2132   1.517       .  S
O2021      C2026   1.266       .  A
O2022      C2024   1.274       .  A
C2023      O2025   1.273       .  A
C2023      C2302   1.488       .  S
C2024      C2262   1.485       .  S
C2026      C2102   1.486       .  S
Fe2027     O2043   2.035       .  S
Fe2027     O2033   2.057       .  S
Fe2027     O2040   2.063       .  S
Fe2027     O2032   2.035       .  S
Fe2027     O2038   1.953       .  S
Fe2028     O2031   2.074       .  S
Fe2028     O2035   2.083       .  S
Fe2028     O2039   2.072       .  S
Fe2028     O2044   2.075       .  S
Fe2028     O2038   1.969       .  S
Fe2029     O2047   2.061       .  S
Fe2029     O2034   2.047       .  S
Fe2029     O2041   2.072       .  S
Fe2029     O2030   2.080       .  S
Fe2029     O2038   1.978       .  S
O2030      C2037   1.270       .  A
O2031      C2045   1.270       .  A
O2032      C2037   1.264       .  A
O2033      C2036   1.267       .  A
O2034      C2046   1.266       .  A
O2035      C2048   1.269       .  A
C2036      O2041   1.267       .  A
C2036      C3008   1.476       .  S
O2039      C2042   1.270       .  A
O2040      C2042   1.269       .  A
C2042      C2115   1.487       .  S
O2043      C2048   1.261       .  A
O2044      C2046   1.273       .  A
C2045      O2047   1.269       .  A
C2045      C2252   1.494       .  S
C2046      C2215   1.481       .  S
C2048      C2162   1.492       .  S
Fe2049     O2065   2.049       .  S
Fe2049     O2055   2.052       .  S
Fe2049     O2062   2.062       .  S
Fe2049     O2054   2.047       .  S
Fe2049     O2060   1.972       .  S
Fe2050     O2053   2.078       .  S
Fe2050     O2057   2.086       .  S
Fe2050     O2061   2.075       .  S
Fe2050     O2066   2.076       .  S
Fe2050     O2060   1.979       .  S
Fe2051     O2069   2.066       .  S
Fe2051     O2056   2.069       .  S
Fe2051     O2063   2.089       .  S
Fe2051     O2052   2.078       .  S
Fe2051     O2060   1.984       .  S
O2052      C2059   1.269       .  A
O2053      C2067   1.269       .  A
O2054      C2059   1.267       .  A
O2055      C2058   1.267       .  A
O2056      C2068   1.270       .  A
O2057      C2070   1.272       .  A
C2058      O2063   1.272       .  A
C2059      C2075   1.487       .  S
O2061      C2064   1.268       .  A
O2062      C2064   1.267       .  A
C2064      C2155   1.478       .  S
O2065      C2070   1.265       .  A
O2066      C2068   1.271       .  A
C2067      O2069   1.268       .  A
C2067      C2225   1.510       .  S
C2068      C2312   1.498       .  S
C2070      C2125   1.486       .  S
C2071      C2072   1.407       .  A
C2071      C2076   1.403       .  A
C2071     Br2078   1.928       .  S
C2072      C2972   1.476   1_545  S
C2072      C2073   1.406       .  A
C2073      C2074   1.411       .  A
C2073     Br3016   1.924       .  S
C2074      C2075   1.416       .  A
C2074     Br2079   1.926       .  S
C2075      C2076   1.412       .  A
C2076     Br2077   1.930       .  S
Br2080     C3009   1.924       .  S
C2081      C2082   1.415       .  A
C2081      C2086   1.414       .  A
C2081     Br3024   1.925       .  S
C2082      C2951   1.494   1_545  S
C2082      C2083   1.413       .  A
C2083      C2084   1.406       .  A
C2083     Br2090   1.931       .  S
C2084      C2085   1.411       .  A
C2084     Br2089   1.933       .  S
C2085      C2086   1.412       .  A
Br2088     C3017   1.925       .  S
C2091      C2092   1.411       .  A
C2091      C2096   1.408       .  A
C2091     Br2098   1.925       .  S
C2092      C2093   1.407       .  A
C2093      C2094   1.402       .  A
C2093     Br2100   1.929       .  S
C2094      C2095   1.412       .  A
C2094     Br2099   1.931       .  S
C2095      C2096   1.410       .  A
C2101      C2102   1.405       .  A
C2101      C2106   1.416       .  A
C2101     Br2108   1.928       .  S
C2102      C2103   1.404       .  A
C2103      C2104   1.413       .  A
C2103     Br2110   1.931       .  S
C2104      C2105   1.426       .  A
C2104     Br2109   1.935       .  S
C2105      C2106   1.428       .  A
C2106     Br2107   1.934       .  S
C2111      C2116   1.407       .  A
C2111     Br2118   1.935       .  S
C2112      C2113   1.417       .  A
C2113      C2114   1.412   1_655  A
C2113     Br2120   1.933       .  S
C2114     Br2119   1.933       .  S
C2115      C2116   1.412       .  A
C2116     Br2117   1.932       .  S
C2121      C2122   1.418       .  A
C2121     Br2128   1.935       .  S
C2122      C2123   1.420       .  A
C2123     Br2130   1.938       .  S
C2124      C2125   1.412       .  A
C2124     Br2129   1.932       .  S
C2125      C2126   1.411       .  A
C2126     Br2127   1.932       .  S
C2131      C2132   1.422       .  A
C2131      C3072   1.420       .  A
C2131     Br2138   1.929       .  S
C2132      C3069   1.426       .  A
C2133      C3068   1.425       .  A
C2133      C2134   1.408   1_565  A
C2133     Br2140   1.941       .  S
C2134      C2135   1.410       .  A
C2134     Br2139   1.931       .  S
C2135      C2136   1.414       .  A
C2136      C3067   1.420   1_545  A
C2136     Br2137   1.933       .  S
C2141      C2142   1.415       .  A
C2141      C2146   1.416       .  A
C2141     Br2148   1.929       .  S
C2142      C2143   1.409       .  A
C2143      C2144   1.410       .  A
C2143     Br2150   1.931       .  S
C2144      C2145   1.414       .  A
C2144     Br2149   1.928       .  S
C2145      C2146   1.411       .  A
C2146     Br2147   1.925       .  S
C2151      C2152   1.425       .  A
C2151      C2156   1.408       .  A
C2151     Br2158   1.938       .  S
C2152      C2153   1.426       .  A
C2153      C2154   1.412       .  A
C2153     Br2160   1.934       .  S
C2154      C2155   1.405       .  A
C2154     Br2159   1.934       .  S
C2155      C2156   1.402       .  A
C2156     Br2157   1.923       .  S
C2161      C2162   1.421       .  A
C2161      C3102   1.408       .  A
C2161     Br2168   1.933       .  S
C2162      C2163   1.424       .  A
C2163      C3100   1.404       .  A
C2163     Br2170   1.936       .  S
C2164      C3099   1.404       .  A
C2164      C2165   1.403       .  A
C2164     Br2169   1.936       .  S
C2165      C2166   1.407       .  A
C2166      C3097   1.408   1_545  A
C2166     Br2167   1.934       .  S
C2171      C2640   1.402       .  A
C2171      C2176   1.391       .  A
C2171     Br2178   1.936       .  S
C2172      C2639   1.403       .  A
C2172      C2173   1.407       .  A
C2173      C2174   1.410       .  A
C2173     Br2180   1.925       .  S
C2174      C2175   1.408       .  A
C2174     Br2179   1.924       .  S
C2175      C2644   1.412       .  A
C2176      C2643   1.411       .  A
C2176     Br2177   1.928   1_556  S
C2181      C2182   1.406       .  A
C2181      C2186   1.403       .  A
C2181     Br2188   1.932       .  S
C2182      C2183   1.409       .  A
C2183      C2184   1.412       .  A
C2183     Br2190   1.927       .  S
C2184      C2185   1.414       .  A
C2184     Br2189   1.925       .  S
C2185      C2186   1.414       .  A
C2186     Br2187   1.926       .  S
C2191      C2192   1.419       .  A
C2191      C2196   1.411       .  A
C2192      C2193   1.421       .  A
C2193      C2194   1.408       .  A
C2193     Br2200   1.933       .  S
C2194      C2195   1.408       .  A
C2194     Br2199   1.935       .  S
C2195      C2196   1.406       .  A
C2196     Br2197   1.929       .  S
C2201      C2202   1.417       .  A
C2201      C2206   1.417       .  A
C2202      C2203   1.412       .  A
C2203      C2204   1.408       .  A
C2203     Br2210   1.935       .  S
C2204      C2205   1.419       .  A
C2204     Br2209   1.937       .  S
C2205      C2206   1.417       .  A
C2206     Br2207   1.931       .  S
C2211      C2212   1.420       .  A
C2211      C2216   1.413       .  A
C2212      C2213   1.423       .  A
C2213      C2214   1.402       .  A
C2213     Br2220   1.940       .  S
C2214      C2215   1.407       .  A
C2214     Br2219   1.936       .  S
C2215      C2216   1.413       .  A
C2221      C2222   1.406       .  A
C2221      C2226   1.412       .  A
C2221     Br2228   1.933       .  S
C2222      C2223   1.406       .  A
C2223      C2224   1.412       .  A
C2224      C2225   1.426       .  A
C2224     Br2229   1.936       .  S
C2225      C2226   1.427       .  A
C2226     Br2227   1.935       .  S
C2231      C2232   1.403       .  A
C2231      C2236   1.404       .  A
C2231     Br2238   1.932       .  S
C2232      C2233   1.402       .  A
C2233      C2234   1.407       .  A
C2233     Br2240   1.931       .  S
C2234      C2235   1.420       .  A
C2234     Br3175   1.931   1_545  S
C2235      C2236   1.419       .  A
C2236     Br2237   1.934       .  S
Br2239     C3170   1.931       .  S
C2241      C2242   1.428       .  A
C2241      C2246   1.414       .  A
C2241     Br3184   1.935   1_545  S
C2242      C2243   1.424       .  A
C2243      C2244   1.412       .  A
C2243     Br2250   1.935       .  S
C2244      C2245   1.405       .  A
C2244     Br2249   1.930       .  S
C2245      C2246   1.407       .  A
C2246     Br2247   1.935       .  S
Br2248     C3177   1.935       .  S
C2251      C2252   1.420       .  A
C2251      C2256   1.408       .  A
C2251     Br2258   1.933       .  S
C2252      C2253   1.421       .  A
C2253      C2254   1.407       .  A
C2253     Br3196   1.935       .  S
C2254      C2255   1.405       .  A
C2254     Br3195   1.932       .  S
C2255      C2256   1.407       .  A
C2256     Br2257   1.932       .  S
Br2259     C3190   1.932   1_545  S
Br2260     C3189   1.935       .  S
C2261      C2262   1.413       .  A
C2261      C2266   1.412       .  A
C2261     Br2268   1.923       .  S
C2262      C2263   1.420       .  A
C2263      C2264   1.401       .  A
C2263     Br2270   1.937       .  S
C2264      C2265   1.401       .  A
C2264     Br2269   1.933       .  S
C2265      C2266   1.407       .  A
C2266     Br2267   1.926       .  S
C2271      C2272   1.409       .  A
C2271      C2276   1.407       .  A
C2271     Br2278   1.932       .  S
C2272      C2273   1.414       .  A
C2273      C2274   1.412       .  A
C2273     Br2280   1.930       .  S
C2274      C2275   1.409       .  A
C2274     Br2279   1.925       .  S
C2275      C2276   1.412       .  A
C2276     Br2277   1.928       .  S
C2281      C2282   1.414       .  A
C2281      C2286   1.417       .  A
C2281     Br2288   1.927       .  S
C2282      C2283   1.414       .  A
C2283      C2284   1.407       .  A
C2283     Br2290   1.934       .  S
C2284      C2285   1.408       .  A
C2284     Br2289   1.927       .  S
C2285      C2286   1.409       .  A
C2286     Br2287   1.926       .  S
C2291      C2292   1.403       .  A
C2291      C2296   1.408       .  A
C2291     Br2298   1.935       .  S
C2292      C2293   1.407       .  A
C2293      C2294   1.415       .  A
C2293     Br2300   1.931       .  S
C2294      C2295   1.421       .  A
C2294     Br2299   1.930       .  S
C2295      C2296   1.427       .  A
C2296     Br2297   1.937       .  S
C2301      C2302   1.407       .  A
C2301      C2306   1.412       .  A
C2301     Br2308   1.937       .  S
C2302      C2303   1.408       .  A
C2303      C2304   1.417       .  A
C2303     Br2310   1.930       .  S
C2304      C2305   1.424       .  A
C2304     Br2309   1.932       .  S
C2305      C2306   1.430       .  A
C2306     Br2307   1.940       .  S
C2311      C2312   1.419       .  A
C2311      C2316   1.408       .  A
C2311     Br2318   1.937       .  S
C2312      C2313   1.421       .  A
C2313      C2314   1.414       .  A
C2313     Br2320   1.932       .  S
C2314      C2315   1.406       .  A
C2314     Br2319   1.929       .  S
C2315      C2316   1.412       .  A
C2316     Br2317   1.937       .  S
C2321      C2322   1.411       .  A
C2321      C2326   1.414       .  A
C2321     Br2328   1.923       .  S
C2322      C2323   1.408       .  A
C2323      C2324   1.394       .  A
C2323     Br2330   1.926       .  S
C2324      C2325   1.405       .  A
C2324     Br2329   1.930       .  S
C2325      C2326   1.408       .  A
C2326     Br2327   1.925       .  S
C2331      C2332   1.406       .  A
C2331      C2336   1.404       .  A
C2331     Br2338   1.931       .  S
C2332      C2333   1.410       .  A
C2333      C2334   1.413       .  A
C2333     Br2340   1.928       .  S
C2334      C2335   1.415       .  A
C2334     Br2339   1.926       .  S
C2335      C2336   1.415       .  A
C2336     Br2337   1.932       .  S
Fe2341     O2357   2.076       .  S
Fe2341     O2347   2.037       .  S
Fe2341     O2354   2.017       .  S
Fe2341     O2346   2.056       .  S
Fe2341     O2352   1.936       .  S
Fe2342     O2345   2.103       .  S
Fe2342     O2349   2.085       .  S
Fe2342     O2353   2.132       .  S
Fe2342     O2358   2.075       .  S
Fe2342     O2352   1.953       .  S
Fe2343     O2361   2.062       .  S
Fe2343     O2348   2.073       .  S
Fe2343     O2355   2.094       .  S
Fe2343     O2344   2.073       .  S
Fe2343     O2352   1.961       .  S
O2344      C2351   1.267       .  A
O2345      C2359   1.277       .  A
O2346      C2351   1.267       .  A
O2347      C2350   1.266       .  A
O2348      C2360   1.272       .  A
O2349      C2362   1.270       .  A
C2350      O2355   1.273       .  A
C2350      C2793   1.465       .  S
C2351      C2800   1.476       .  S
O2353      C2356   1.281       .  A
O2354      C2356   1.260       .  A
C2356      C2783   1.487       .  S
O2357      C2362   1.266       .  A
O2358      C2360   1.273       .  A
C2359      O2361   1.270       .  A
C2359      C2750   1.491       .  S
C2360      C2760   1.474       .  S
C2362      C2773   1.513       .  S
Fe2363     O2379   2.035       .  S
Fe2363     O2369   2.062       .  S
Fe2363     O2376   2.062       .  S
Fe2363     O2368   2.053       .  S
Fe2363     O2374   1.941       .  S
Fe2364     O2367   2.051   1_565  S
Fe2364     O3307   2.087       .  S
Fe2364     O2375   2.061       .  S
Fe2364     O2380   2.100   1_565  S
Fe2364     O3310   1.960       .  S
Fe2365     O2383   2.074       .  S
Fe2365     O2370   2.065       .  S
Fe2365     O2377   2.077       .  S
Fe2365     O2366   2.073       .  S
Fe2365     O2374   1.963       .  S
O2366      C2373   1.265       .  A
O2367      C2381   1.264       .  A
O2368      C2373   1.265       .  A
O2369      C2372   1.273       .  A
O2370      C3318   1.268       .  A
O2371     Fe3300   2.087       .  S
O2371      C2384   1.270       .  A
C2372      O2377   1.273       .  A
C2372      C2740   1.482       .  S
C2373      C2790   1.469       .  S
O2374     Fe3300   1.960       .  S
O2375      C3314   1.270       .  A
O2376      C2378   1.270       .  A
C2378      O3311   1.270       .  A
C2378      C2733   1.463       .  S
O2379      C2384   1.262       .  A
O2380      C2382   1.276   1_545  A
C2381      O3319   1.269   1_545  A
C2381      C2703   1.483       .  S
C2382      O3306   1.268       .  A
C2382      C2710   1.512   1_565  S
O2383      C3317   1.269       .  A
C2384      C2723   1.478       .  S
Fe2385     O2401   2.070       .  S
Fe2385     O2391   2.051       .  S
Fe2385     O2398   2.044       .  S
Fe2385     O2390   2.056       .  S
Fe2385     O2396   1.968       .  S
Fe2386     O2389   2.069   1_455  S
Fe2386     O2402   2.070   1_455  S
Fe2387     O2405   2.074       .  S
Fe2387     O2392   2.067       .  S
Fe2387     O2399   2.086       .  S
Fe2387     O2388   2.089       .  S
Fe2387     O2396   1.988       .  S
O2388      C2395   1.271       .  A
O2389      C2403   1.271       .  A
O2390      C2395   1.267       .  A
O2391      C2394   1.268       .  A
O2393      C2406   1.268       .  A
C2394      O2399   1.271       .  A
C2394      C2803   1.488       .  S
C2395      C2743   1.488       .  S
O2397      C2400   1.270       .  A
O2398      C2400   1.264       .  A
C2400      C2680   1.490       .  S
O2401      C2406   1.269       .  A
O2402      C2404   1.268   1_655  A
C2403      C2670   1.494       .  S
C2404      C2660   1.500   1_455  S
C2406      C2690   1.483       .  S
Fe2407     O2423   2.021       .  S
Fe2407     O2413   2.053       .  S
Fe2407     O2420   2.072       .  S
Fe2407     O2412   2.035       .  S
Fe2407     O2418   1.938       .  S
Fe2408     O2415   2.090       .  S
Fe2408     O2419   2.082       .  S
Fe2408     O2418   1.954       .  S
Fe2409     O2427   2.068       .  S
Fe2409     O2414   2.061       .  S
Fe2409     O2421   2.069       .  S
Fe2409     O2410   2.066       .  S
O2410      C2417   1.267       .  A
O2411      C2425   1.273       .  A
O2414      C2426   1.266       .  A
O2415      C2428   1.270       .  A
C2416      O2421   1.268       .  A
C2416      C2650   1.475       .  S
C2417      C2640   1.455       .  S
O2419      C2422   1.273       .  A
O2420      C2422   1.268       .  A
C2422      C2763   1.498       .  S
O2423      C2428   1.261       .  A
O2424      C2426   1.270       .  A
C2425      O2427   1.271       .  A
C2425      C2633   1.473       .  S
C2426      C2620   1.496       .  S
C2428      C2700   1.461       .  S
Fe2429     O2445   2.038       .  S
Fe2429     O2435   2.066       .  S
Fe2429     O2442   2.076       .  S
Fe2429     O2434   2.046       .  S
Fe2429     O2440   1.965       .  S
Fe2430     O2437   2.098       .  S
Fe2430     O2441   2.073       .  S
Fe2430     O2440   1.976       .  S
Fe2431     O2449   2.072       .  S
Fe2431     O2436   2.071       .  S
Fe2431     O2443   2.098       .  S
Fe2431     O2432   2.088       .  S
O2432      C2439   1.271       .  A
O2433      C2447   1.269       .  A
O2436      C2448   1.271       .  A
O2437      C2450   1.272       .  A
C2438      O2443   1.274       .  A
C2438      C2613   1.492       .  S
C2439      C2653   1.489       .  S
O2441      C2444   1.269       .  A
O2442      C2444   1.271       .  A
C2444      C2713   1.485       .  S
O2445      C2450   1.263       .  A
O2446      C2448   1.276       .  A
C2447      O2449   1.271       .  A
C2447      C2590   1.502       .  S
C2448      C2603   1.503       .  S
C2450      C2673   1.496       .  S
Fe2451     O2467   2.080       .  S
Fe2451     O2457   2.033       .  S
Fe2451     O2464   2.026       .  S
Fe2451     O2456   2.068       .  S
Fe2451     O2462   1.945       .  S
Fe2452     O2459   2.081       .  S
Fe2452     O2463   2.098       .  S
Fe2452     O2462   1.962       .  S
Fe2453     O2471   2.076       .  S
Fe2453     O2458   2.083       .  S
Fe2453     O2465   2.077       .  S
Fe2453     O2454   2.084       .  S
O2454      C2461   1.274       .  A
O2455      C2469   1.273       .  A
O2458      C2470   1.273       .  A
O2459      C2472   1.273       .  A
C2460      O2465   1.268       .  A
C2460      C2643   1.463       .  S
C2461      C2610   1.490       .  S
O2463      C2466   1.272       .  A
O2464      C2466   1.260       .  A
C2466      C2663   1.477       .  S
O2467      C2472   1.273       .  A
O2468      C2470   1.269       .  A
C2469      O2471   1.270       .  A
C2469      C2573   1.510       .  S
C2470      C2580   1.491       .  S
C2472      C2753   1.484       .  S
Fe2473     O2489   2.058       .  S
Fe2473     O2479   2.057       .  S
Fe2473     O2486   2.053       .  S
Fe2473     O2478   2.055       .  S
Fe2473     O2484   1.968       .  S
Fe2474     O2477   2.079       .  S
Fe2474     O2481   2.092       .  S
Fe2474     O2485   2.110       .  S
Fe2474     O2490   2.088       .  S
Fe2474     O2484   1.988       .  S
Fe2475     O2493   2.077       .  S
Fe2475     O2480   2.036       .  S
Fe2475     O2487   2.061       .  S
Fe2475     O2476   2.085       .  S
Fe2475     O2484   1.982       .  S
O2476      C2483   1.270       .  A
O2477      C2491   1.273       .  A
O2478      C2483   1.268       .  A
O2479      C2482   1.267       .  A
O2480      C2492   1.263       .  A
O2481      C2494   1.272       .  A
C2482      O2487   1.264       .  A
C2482      C2560   1.477       .  S
C2483      C3486   1.490       .  S
O2485      C2488   1.275       .  A
O2486      C2488   1.265       .  A
C2488      C2600   1.520       .  S
O2489      C2494   1.267       .  A
O2490      C2492   1.274       .  A
C2491      O2493   1.272       .  A
C2491      C2770   1.487       .  S
C2492      C2730   1.484       .  S
C2494      C2570   1.484       .  S
Fe2495     O2511   2.030       .  S
Fe2495     O2501   2.055       .  S
Fe2495     O2508   2.062       .  S
Fe2495     O2500   2.031       .  S
Fe2495     O2506   1.958       .  S
Fe2496     O2499   2.069       .  S
Fe2496     O2503   2.087       .  S
Fe2496     O2507   2.064       .  S
Fe2496     O2512   2.073       .  S
Fe2496     O2506   1.972       .  S
Fe2497     O2515   2.061       .  S
Fe2497     O2502   2.054       .  S
Fe2497     O2509   2.076       .  S
Fe2497     O2498   2.085       .  S
Fe2497     O2506   1.984       .  S
O2498      C2505   1.270       .  A
O2499      C2513   1.268       .  A
O2500      C2505   1.264       .  A
O2501      C2504   1.267       .  A
O2502      C2514   1.267       .  A
O2503      C2516   1.271       .  A
C2504      O2509   1.268       .  A
C2504      C3476   1.478       .  S
O2507      C2510   1.266       .  A
O2508      C2510   1.268       .  A
C2510      C2583   1.481       .  S
O2511      C2516   1.261       .  A
O2512      C2514   1.271       .  A
C2513      O2515   1.268       .  A
C2513      C2720   1.490       .  S
C2514      C2683   1.499       .  S
C2516      C2630   1.490       .  S
Fe2517     O2533   2.054       .  S
Fe2517     O2523   2.053       .  S
Fe2517     O2530   2.062       .  S
Fe2517     O2522   2.049       .  S
Fe2517     O2528   1.974       .  S
Fe2518     O2521   2.068       .  S
Fe2518     O2525   2.085       .  S
Fe2518     O2529   2.071       .  S
Fe2518     O2534   2.076       .  S
Fe2518     O2528   1.977       .  S
Fe2519     O2537   2.066       .  S
Fe2519     O2524   2.071       .  S
Fe2519     O2531   2.086       .  S
Fe2519     O2520   2.076       .  S
Fe2519     O2528   1.985       .  S
O2520      C2527   1.268       .  A
O2521      C2535   1.267       .  A
O2522      C2527   1.266       .  A
O2523      C2526   1.268       .  A
O2524      C2536   1.271       .  A
O2525      C2538   1.271       .  A
C2526      O2531   1.272       .  A
C2527      C2543   1.488       .  S
O2529      C2532   1.268       .  A
O2530      C2532   1.268       .  A
C2532      C2623   1.474       .  S
O2533      C2538   1.265       .  A
O2534      C2536   1.272       .  A
C2535      O2537   1.267       .  A
C2535      C2693   1.507       .  S
C2536      C2780   1.495       .  S
C2538      C2593   1.489       .  S
C2539      C2540   1.407       .  A
C2539      C2544   1.403       .  A
C2539     Br2546   1.927       .  S
C2540      C3440   1.478   1_545  S
C2540      C2541   1.406       .  A
C2541      C2542   1.412       .  A
C2541     Br3484   1.924       .  S
C2542      C2543   1.417       .  A
C2542     Br2547   1.927       .  S
C2543      C2544   1.412       .  A
C2544     Br2545   1.931       .  S
Br2548     C3477   1.924       .  S
C2549      C2550   1.414       .  A
C2549      C2554   1.413       .  A
C2549     Br3492   1.925       .  S
C2550      C3419   1.490   1_545  S
C2550      C2551   1.411       .  A
C2551      C2552   1.405       .  A
C2551     Br2558   1.932       .  S
C2552      C2553   1.412       .  A
C2552     Br2557   1.931       .  S
C2553      C2554   1.413       .  A
Br2556     C3485   1.925       .  S
C2559      C2560   1.412       .  A
C2559      C2564   1.408       .  A
C2559     Br2566   1.925       .  S
C2560      C2561   1.407       .  A
C2561      C2562   1.402       .  A
C2561     Br2568   1.928       .  S
C2562      C2563   1.411       .  A
C2562     Br2567   1.931       .  S
C2563      C2564   1.409       .  A
C2569      C2570   1.405       .  A
C2569      C2574   1.414       .  A
C2569     Br2576   1.928       .  S
C2570      C2571   1.403       .  A
C2571      C2572   1.412       .  A
C2571     Br2578   1.931       .  S
C2572      C2573   1.425       .  A
C2572     Br2577   1.933   1_556  S
C2573      C2574   1.427       .  A
C2574     Br2575   1.934       .  S
C2579      C2584   1.405       .  A
C2579     Br2586   1.936       .  S
C2580      C2581   1.420       .  A
C2581      C2582   1.411   1_655  A
C2581     Br2588   1.934       .  S
C2582     Br2587   1.933       .  S
C2583      C2584   1.408       .  A
C2584     Br2585   1.928       .  S
C2589      C2590   1.420       .  A
C2589     Br2596   1.936       .  S
C2590      C2591   1.422       .  A
C2591     Br2598   1.938   1_556  S
C2592      C2593   1.412       .  A
C2592     Br2597   1.931       .  S
C2593      C2594   1.410       .  A
C2594     Br2595   1.932       .  S
C2599      C2600   1.421       .  A
C2599      C3540   1.420       .  A
C2599     Br2606   1.928       .  S
C2600      C3537   1.425       .  A
C2601      C3536   1.425       .  A
C2601      C2602   1.412   1_565  A
C2601     Br2608   1.940       .  S
C2602      C2603   1.413       .  A
C2602     Br2607   1.933       .  S
C2603      C2604   1.416       .  A
C2604      C3535   1.420   1_545  A
C2604     Br2605   1.934       .  S
C2609      C2610   1.415       .  A
C2609      C2614   1.416       .  A
C2609     Br2616   1.929       .  S
C2610      C2611   1.410       .  A
C2611      C2612   1.410       .  A
C2611     Br2618   1.931   1_556  S
C2612      C2613   1.413       .  A
C2612     Br2617   1.928   1_556  S
C2613      C2614   1.411       .  A
C2614     Br2615   1.924       .  S
C2619      C2620   1.420       .  A
C2619      C2624   1.407       .  A
C2619     Br2626   1.933   1_556  S
C2620      C2621   1.423       .  A
C2621      C2622   1.409       .  A
C2621     Br2628   1.934       .  S
C2622      C2623   1.405       .  A
C2622     Br2627   1.931       .  S
C2623      C2624   1.402       .  A
C2624     Br2625   1.923       .  S
C2629      C2630   1.418       .  A
C2629      C3570   1.409       .  A
C2629     Br2636   1.935       .  S
C2630      C2631   1.423       .  A
C2631      C3568   1.404       .  A
C2631     Br2638   1.935       .  S
C2632      C3567   1.404       .  A
C2632      C2633   1.404       .  A
C2632     Br2637   1.937       .  S
C2633      C2634   1.410       .  A
C2634      C3565   1.409   1_545  A
C2634     Br2635   1.933       .  S
C2639      C2644   1.393       .  A
C2639     Br2646   1.937       .  S
C2640      C2641   1.407       .  A
C2641      C2642   1.409       .  A
C2641     Br2648   1.927       .  S
C2642      C2643   1.409       .  A
C2642     Br2647   1.925       .  S
C2644     Br2645   1.927       .  S
C2649      C2650   1.405       .  A
C2649      C2654   1.403       .  A
C2649     Br2656   1.932   1_556  S
C2650      C2651   1.409       .  A
C2651      C2652   1.412       .  A
C2651     Br2658   1.928       .  S
C2652      C2653   1.415       .  A
C2652     Br2657   1.926       .  S
C2653      C2654   1.415       .  A
C2654     Br2655   1.927   1_556  S
C2659      C2660   1.422       .  A
C2659      C2664   1.411       .  A
C2660      C2661   1.422       .  A
C2661      C2662   1.408       .  A
C2661     Br2668   1.935       .  S
C2662      C2663   1.408       .  A
C2662     Br2667   1.936       .  S
C2663      C2664   1.406       .  A
C2664     Br2665   1.930       .  S
C2669      C2670   1.416       .  A
C2669      C2674   1.416       .  A
C2670      C2671   1.415       .  A
C2671      C2672   1.407       .  A
C2671     Br2678   1.935       .  S
C2672      C2673   1.416       .  A
C2672     Br2677   1.937       .  S
C2673      C2674   1.417       .  A
C2674     Br2675   1.931       .  S
C2679      C2680   1.414       .  A
C2679      C2684   1.412       .  A
C2680      C2681   1.415       .  A
C2681      C2682   1.407       .  A
C2681     Br2688   1.935       .  S
C2682      C2683   1.420       .  A
C2682     Br2687   1.939       .  S
C2683      C2684   1.423       .  A
C2689      C2690   1.404       .  A
C2689      C2694   1.409       .  A
C2689     Br2696   1.924       .  S
C2690      C2691   1.405       .  A
C2691      C2692   1.413       .  A
C2692      C2693   1.427       .  A
C2692     Br2697   1.936       .  S
C2693      C2694   1.426       .  A
C2694     Br2695   1.938       .  S
C2699      C2700   1.404       .  A
C2699      C2704   1.404       .  A
C2699     Br2706   1.932       .  S
C2700      C2701   1.402       .  A
C2701      C2702   1.405       .  A
C2701     Br2708   1.931       .  S
C2702      C2703   1.418       .  A
C2702     Br3643   1.932   1_545  S
C2703      C2704   1.418       .  A
C2704     Br2705   1.934       .  S
Br2707     C3638   1.932       .  S
C2709      C2710   1.429       .  A
C2709      C2714   1.414       .  A
C2709     Br3652   1.936   1_545  S
C2710      C2711   1.424       .  A
C2711      C2712   1.412       .  A
C2711     Br2718   1.935       .  S
C2712      C2713   1.404       .  A
C2712     Br2717   1.930       .  S
C2713      C2714   1.406       .  A
C2714     Br2715   1.934       .  S
Br2716     C3645   1.936       .  S
C2719      C2720   1.418       .  A
C2719      C2724   1.407       .  A
C2719     Br2726   1.934       .  S
C2720      C2721   1.417       .  A
C2721      C2722   1.408       .  A
C2721     Br3664   1.934       .  S
C2722      C2723   1.408       .  A
C2722     Br3663   1.930       .  S
C2723      C2724   1.410       .  A
C2724     Br2725   1.935       .  S
Br2727     C3658   1.930   1_545  S
Br2728     C3657   1.934       .  S
C2729      C2730   1.414       .  A
C2729      C2734   1.410       .  A
C2729     Br2736   1.920       .  S
C2730      C2731   1.421       .  A
C2731      C2732   1.400       .  A
C2731     Br2738   1.939       .  S
C2732      C2733   1.400       .  A
C2732     Br2737   1.933       .  S
C2733      C2734   1.405       .  A
C2734     Br2735   1.928       .  S
C2739      C2740   1.408       .  A
C2739      C2744   1.406       .  A
C2739     Br2746   1.934       .  S
C2740      C2741   1.413       .  A
C2741      C2742   1.413       .  A
C2741     Br2748   1.929       .  S
C2742      C2743   1.411       .  A
C2742     Br2747   1.925       .  S
C2743      C2744   1.414       .  A
C2744     Br2745   1.928       .  S
C2749      C2750   1.414       .  A
C2749      C2754   1.417       .  A
C2749     Br2756   1.927       .  S
C2750      C2751   1.416       .  A
C2751      C2752   1.407       .  A
C2751     Br2758   1.934       .  S
C2752      C2753   1.407       .  A
C2752     Br2757   1.930       .  S
C2753      C2754   1.409       .  A
C2754     Br2755   1.926       .  S
C2759      C2760   1.403       .  A
C2759      C2764   1.406       .  A
C2759     Br2766   1.934       .  S
C2760      C2761   1.406       .  A
C2761      C2762   1.414       .  A
C2761     Br2768   1.930       .  S
C2762      C2763   1.420       .  A
C2762     Br2767   1.930       .  S
C2763      C2764   1.424       .  A
C2764     Br2765   1.935       .  S
C2769      C2770   1.407       .  A
C2769      C2774   1.412       .  A
C2769     Br2776   1.938       .  S
C2770      C2771   1.407       .  A
C2771      C2772   1.415       .  A
C2771     Br2778   1.931       .  S
C2772      C2773   1.425       .  A
C2772     Br2777   1.933       .  S
C2773      C2774   1.430       .  A
C2774     Br2775   1.941       .  S
C2779      C2780   1.416       .  A
C2779      C2784   1.408       .  A
C2779     Br2786   1.938       .  S
C2780      C2781   1.419       .  A
C2781      C2782   1.415       .  A
C2781     Br2788   1.931       .  S
C2782      C2783   1.409       .  A
C2782     Br2787   1.928       .  S
C2783      C2784   1.415       .  A
C2784     Br2785   1.938       .  S
C2789      C2790   1.410       .  A
C2789      C2794   1.413       .  A
C2789     Br2796   1.923       .  S
C2790      C2791   1.407       .  A
C2791      C2792   1.392       .  A
C2791     Br2798   1.924       .  S
C2792      C2793   1.404       .  A
C2792     Br2797   1.927       .  S
C2793      C2794   1.408       .  A
C2794     Br2795   1.925       .  S
C2799      C2800   1.406       .  A
C2799      C2804   1.404       .  A
C2799     Br2806   1.930       .  S
C2800      C2801   1.409       .  A
C2801      C2802   1.413       .  A
C2801     Br2808   1.929       .  S
C2802      C2803   1.415       .  A
C2802     Br2807   1.926       .  S
C2803      C2804   1.413       .  A
C2804     Br2805   1.930       .  S
Fe2809     O2825   2.075       .  S
Fe2809     O2815   2.033       .  S
Fe2809     O2822   2.018       .  S
Fe2809     O2814   2.054       .  S
Fe2809     O2820   1.942       .  S
Fe2810     O2813   2.092       .  S
Fe2810     O2817   2.092       .  S
Fe2810     O2821   2.126       .  S
Fe2810     O2826   2.079       .  S
Fe2810     O2820   1.956       .  S
Fe2811     O2829   2.068       .  S
Fe2811     O2816   2.074       .  S
Fe2811     O2823   2.097       .  S
Fe2811     O2812   2.074       .  S
Fe2811     O2820   1.967       .  S
O2812      C2819   1.267       .  A
O2813      C2827   1.274       .  A
O2814      C2819   1.267       .  A
O2815      C2818   1.265       .  A
O2816      C2828   1.273       .  A
O2817      C2830   1.271       .  A
C2818      O2823   1.274       .  A
C2818      C3261   1.466       .  S
C2819      C3268   1.478       .  S
O2821      C2824   1.280       .  A
O2822      C2824   1.260       .  A
C2824      C3251   1.483       .  S
O2825      C2830   1.266       .  A
O2826      C2828   1.275       .  A
C2827      O2829   1.271       .  A
C2827      C3218   1.490       .  S
C2828      C3228   1.477       .  S
C2830      C3241   1.514       .  S
Fe2831     O2847   2.037       .  S
Fe2831     O2837   2.067       .  S
Fe2831     O2844   2.070       .  S
Fe2831     O2836   2.054       .  S
Fe2831     O2842   1.948       .  S
Fe2832     O2835   2.050       .  S
Fe2832     O2843   2.064       .  S
Fe2832     O2848   2.097       .  S
Fe2833     O2851   2.078       .  S
Fe2833     O2838   2.068       .  S
Fe2833     O2845   2.074       .  S
Fe2833     O2834   2.072       .  S
Fe2833     O2842   1.967       .  S
O2834      C2841   1.266       .  A
O2835      C2849   1.264       .  A
O2836      C2841   1.266       .  A
O2837      C2840   1.273       .  A
O2839      C2852   1.269       .  A
C2840      O2845   1.272       .  A
C2840      C3208   1.482       .  S
C2841      C3258   1.471       .  S
O2844      C2846   1.272       .  A
C2846      C3201   1.468       .  S
O2847      C2852   1.262       .  A
O2848      C2850   1.275       .  A
C2849      C3171   1.486       .  S
C2850      C3178   1.512       .  S
C2852      C3191   1.474       .  S
Fe2853     O2869   2.068       .  S
Fe2853     O2859   2.043       .  S
Fe2853     O2866   2.029       .  S
Fe2853     O2858   2.054       .  S
Fe2853     O2864   1.962       .  S
Fe2854     O2857   2.082   1_455  S
Fe2854     O2870   2.069   1_455  S
Fe2855     O2873   2.067       .  S
Fe2855     O2860   2.074       .  S
Fe2855     O2867   2.093       .  S
Fe2855     O2856   2.085       .  S
Fe2855     O2864   1.985       .  S
O2856      C2863   1.270       .  A
O2857      C2871   1.273       .  A
O2858      C2863   1.265       .  A
O2859      C2862   1.267       .  A
O2861      C2874   1.268       .  A
C2862      O2867   1.273       .  A
C2862      C3271   1.490       .  S
C2863      C3211   1.483       .  S
O2865      C2868   1.271       .  A
O2866      C2868   1.260       .  A
C2868      C3148   1.496       .  S
O2869      C2874   1.268       .  A
O2870      C2872   1.268   1_655  A
C2871      C3138   1.495       .  S
C2872      C3128   1.499   1_455  S
C2874      C3158   1.483       .  S
Fe2875     O2891   2.020       .  S
Fe2875     O2881   2.055       .  S
Fe2875     O2888   2.075       .  S
Fe2875     O2880   2.036       .  S
Fe2875     O2886   1.932       .  S
Fe2876     O3347   2.063   1_554  S
Fe2876     O2883   2.096       .  S
Fe2876     O2887   2.087       .  S
Fe2876     O3360   2.077   1_554  S
Fe2876     O2886   1.948       .  S
Fe2877     O2895   2.065       .  S
Fe2877     O2882   2.067       .  S
Fe2877     O2889   2.072       .  S
Fe2877     O2878   2.070       .  S
Fe2877     O3354   1.961       .  S
O2878      C2885   1.267       .  A
O2879     Fe3344   2.060       .  S
O2879      C2893   1.271       .  A
O2880      C3353   1.266   1_554  A
O2881      C3352   1.268   1_554  A
O2882      C2894   1.267       .  A
O2883      C2896   1.272       .  A
C2884      O3349   1.268       .  A
C2884      O2889   1.269       .  A
C2884      C3118   1.476       .  S
C2885      O3348   1.266       .  A
C2885      C3108   1.459       .  S
O2886     Fe3345   1.958   1_554  S
O2887      C2890   1.273       .  A
O2888      C2890   1.268       .  A
C2890      C3231   1.503       .  S
O2891      C2896   1.261       .  A
O2892     Fe3344   2.074       .  S
O2892      C2894   1.269       .  A
C2893      O2895   1.271       .  A
C2893      C3101   1.468       .  S
C2894      C3088   1.504       .  S
C2896      C3168   1.462       .  S
Fe2897     O2913   2.036       .  S
Fe2897     O2903   2.064       .  S
Fe2897     O2910   2.074       .  S
Fe2897     O2902   2.043       .  S
Fe2897     O2908   1.966       .  S
Fe2898     O3369   2.071   1_554  S
Fe2898     O2905   2.108       .  S
Fe2898     O2909   2.076       .  S
Fe2898     O3382   2.096   1_554  S
Fe2898     O2908   1.975       .  S
Fe2899     O2917   2.073       .  S
Fe2899     O2904   2.071       .  S
Fe2899     O2911   2.095       .  S
Fe2899     O2900   2.088       .  S
Fe2899     O3376   1.983       .  S
O2900      C2907   1.271       .  A
O2901     Fe3366   2.063       .  S
O2901      C2915   1.267       .  A
O2902      C3375   1.265   1_554  A
O2903      C3374   1.269   1_554  A
O2904      C2916   1.270       .  A
O2905      C2918   1.274       .  A
C2906      O3371   1.269       .  A
C2906      O2911   1.273       .  A
C2906      C3081   1.493       .  S
C2907      O3370   1.266       .  A
C2907      C3121   1.488       .  S
O2908     Fe3367   1.982   1_554  S
O2909      C2912   1.270       .  A
O2910      C2912   1.270       .  A
C2912      C3181   1.485       .  S
O2913      C2918   1.262       .  A
O2914     Fe3366   2.088       .  S
O2914      C2916   1.275       .  A
C2915      O2917   1.271       .  A
C2915      C3058   1.496       .  S
C2916      C3071   1.497       .  S
C2918      C3141   1.501       .  S
Fe2919     O2935   2.083       .  S
Fe2919     O2925   2.033       .  S
Fe2919     O2932   2.029       .  S
Fe2919     O2924   2.069       .  S
Fe2919     O2930   1.941       .  S
Fe2920     O3391   2.093   1_554  S
Fe2920     O2927   2.083       .  S
Fe2920     O2931   2.097       .  S
Fe2920     O3404   2.061   1_554  S
Fe2920     O2930   1.958       .  S
Fe2921     O2939   2.080       .  S
Fe2921     O2926   2.085       .  S
Fe2921     O2933   2.081       .  S
Fe2921     O2922   2.086       .  S
Fe2921     O3398   1.968       .  S
O2922      C2929   1.275       .  A
O2923     Fe3388   2.095       .  S
O2923      C2937   1.275       .  A
O2924      C3397   1.272   1_554  A
O2925      C3396   1.262   1_554  A
O2926      C2938   1.273       .  A
O2927      C2940   1.274       .  A
C2928      O3393   1.262       .  A
C2928      O2933   1.268       .  A
C2928      C3111   1.466       .  S
C2929      O3392   1.272       .  A
C2929      C3078   1.489       .  S
O2930     Fe3389   1.966   1_554  S
O2931      C2934   1.271       .  A
O2932      C2934   1.260       .  A
C2934      C3131   1.477       .  S
O2935      C2940   1.274       .  A
O2936     Fe3388   2.063       .  S
O2936      C2938   1.269       .  A
C2937      O2939   1.271       .  A
C2937      C3041   1.516       .  S
C2938      C3048   1.492       .  S
C2940      C3221   1.485       .  S
Fe2941     O2957   2.055       .  S
Fe2941     O2947   2.053       .  S
Fe2941     O2954   2.048       .  S
Fe2941     O2946   2.055       .  S
Fe2941     O2952   1.968       .  S
Fe2942     O2945   2.081       .  S
Fe2942     O2949   2.099       .  S
Fe2942     O2953   2.106       .  S
Fe2942     O2958   2.093       .  S
Fe2942     O2952   1.988       .  S
Fe2943     O2961   2.081       .  S
Fe2943     O2948   2.038       .  S
Fe2943     O2955   2.063       .  S
Fe2943     O2944   2.090       .  S
Fe2943     O2952   1.981       .  S
O2944      C2951   1.271       .  A
O2945      C2959   1.274       .  A
O2946      C2951   1.267       .  A
O2947      C2950   1.267       .  A
O2948      C2960   1.263       .  A
O2949      C2962   1.274       .  A
C2950      O2955   1.265       .  A
C2950      C3028   1.475       .  S
O2953      C2956   1.275       .  A
O2954      C2956   1.264       .  A
C2956      C3068   1.517       .  S
O2957      C2962   1.266       .  A
O2958      C2960   1.274       .  A
C2959      O2961   1.273       .  A
C2959      C3238   1.488       .  S
C2960      C3198   1.485       .  S
C2962      C3038   1.486       .  S
Fe2963     O2979   2.035       .  S
Fe2963     O2969   2.057       .  S
Fe2963     O2976   2.063       .  S
Fe2963     O2968   2.035       .  S
Fe2963     O2974   1.953       .  S
Fe2964     O2967   2.074       .  S
Fe2964     O2971   2.083       .  S
Fe2964     O2975   2.072       .  S
Fe2964     O2980   2.075       .  S
Fe2964     O2974   1.969       .  S
Fe2965     O2983   2.061       .  S
Fe2965     O2970   2.047       .  S
Fe2965     O2977   2.072       .  S
Fe2965     O2966   2.080       .  S
Fe2965     O2974   1.979       .  S
O2966      C2973   1.270       .  A
O2967      C2981   1.270       .  A
O2968      C2973   1.264       .  A
O2969      C2972   1.267       .  A
O2970      C2982   1.266       .  A
O2971      C2984   1.269       .  A
C2972      O2977   1.267       .  A
O2975      C2978   1.270       .  A
O2976      C2978   1.269       .  A
C2978      C3051   1.487       .  S
O2979      C2984   1.261       .  A
O2980      C2982   1.273       .  A
C2981      O2983   1.269       .  A
C2981      C3188   1.494       .  S
C2982      C3151   1.481       .  S
C2984      C3098   1.492       .  S
Fe2985     O3001   2.049       .  S
Fe2985     O2991   2.052       .  S
Fe2985     O2998   2.062       .  S
Fe2985     O2990   2.047       .  S
Fe2985     O2996   1.972       .  S
Fe2986     O2989   2.078       .  S
Fe2986     O2993   2.086       .  S
Fe2986     O2997   2.075       .  S
Fe2986     O3002   2.076       .  S
Fe2986     O2996   1.979       .  S
Fe2987     O3005   2.066       .  S
Fe2987     O2992   2.069       .  S
Fe2987     O2999   2.089       .  S
Fe2987     O2988   2.078       .  S
Fe2987     O2996   1.984       .  S
O2988      C2995   1.269       .  A
O2989      C3003   1.269       .  A
O2990      C2995   1.267       .  A
O2991      C2994   1.267       .  A
O2992      C3004   1.270       .  A
O2993      C3006   1.272       .  A
C2994      O2999   1.272       .  A
C2995      C3011   1.487       .  S
O2997      C3000   1.268       .  A
O2998      C3000   1.267       .  A
C3000      C3091   1.478       .  S
O3001      C3006   1.265       .  A
O3002      C3004   1.271       .  A
C3003      O3005   1.268       .  A
C3003      C3161   1.510       .  S
C3004      C3248   1.498       .  S
C3006      C3061   1.486       .  S
C3007      C3008   1.407       .  A
C3007      C3012   1.403       .  A
C3007     Br3014   1.928       .  S
C3008      C3009   1.406       .  A
C3009      C3010   1.411       .  A
C3010      C3011   1.416       .  A
C3010     Br3015   1.926       .  S
C3011      C3012   1.412       .  A
C3012     Br3013   1.930       .  S
C3017      C3018   1.415       .  A
C3017      C3022   1.414       .  A
C3018      C3019   1.413       .  A
C3019      C3020   1.406       .  A
C3019     Br3026   1.931       .  S
C3020      C3021   1.411       .  A
C3020     Br3025   1.933       .  S
C3021      C3022   1.412       .  A
C3027      C3028   1.411       .  A
C3027      C3032   1.408       .  A
C3027     Br3034   1.925       .  S
C3028      C3029   1.407       .  A
C3029      C3030   1.402       .  A
C3029     Br3036   1.929       .  S
C3030      C3031   1.412       .  A
C3030     Br3035   1.931       .  S
C3031      C3032   1.410       .  A
C3037      C3038   1.405       .  A
C3037      C3042   1.416       .  A
C3037     Br3044   1.928       .  S
C3038      C3039   1.404       .  A
C3039      C3040   1.413       .  A
C3039     Br3046   1.931       .  S
C3040      C3041   1.426       .  A
C3040     Br3045   1.935       .  S
C3041      C3042   1.428       .  A
C3042     Br3043   1.934       .  S
C3047      C3052   1.407       .  A
C3047     Br3054   1.935       .  S
C3048      C3049   1.417       .  A
C3049      C3050   1.412   1_655  A
C3049     Br3056   1.933       .  S
C3050     Br3055   1.933       .  S
C3051      C3052   1.412       .  A
C3052     Br3053   1.932       .  S
C3057      C3058   1.418       .  A
C3057     Br3064   1.935       .  S
C3058      C3059   1.420       .  A
C3059     Br3066   1.938       .  S
C3060      C3061   1.412       .  A
C3060     Br3065   1.932       .  S
C3061      C3062   1.411       .  A
C3062     Br3063   1.932       .  S
C3067      C3068   1.422       .  A
C3067     Br3074   1.929       .  S
C3069      C3070   1.408       .  A
C3069     Br3076   1.941       .  S
C3070      C3071   1.410       .  A
C3070     Br3075   1.931       .  S
C3071      C3072   1.414       .  A
C3072     Br3073   1.933       .  S
C3077      C3078   1.415       .  A
C3077      C3082   1.416       .  A
C3077     Br3084   1.929       .  S
C3078      C3079   1.409       .  A
C3079      C3080   1.410       .  A
C3079     Br3086   1.931       .  S
C3080      C3081   1.414       .  A
C3080     Br3085   1.928       .  S
C3081      C3082   1.411       .  A
C3082     Br3083   1.925       .  S
C3087      C3088   1.425       .  A
C3087      C3092   1.408       .  A
C3087     Br3094   1.938       .  S
C3088      C3089   1.426       .  A
C3089      C3090   1.412       .  A
C3089     Br3096   1.934       .  S
C3090      C3091   1.405       .  A
C3090     Br3095   1.934       .  S
C3091      C3092   1.402       .  A
C3092     Br3093   1.923       .  S
C3097      C3098   1.421       .  A
C3097     Br3104   1.933       .  S
C3098      C3099   1.424   1_565  A
C3099     Br3106   1.936   1_545  S
C3100      C3101   1.403       .  A
C3100     Br3105   1.936       .  S
C3101      C3102   1.407       .  A
C3102     Br3103   1.934       .  S
C3107      C3576   1.402       .  A
C3107      C3112   1.391       .  A
C3107     Br3114   1.936       .  S
C3108      C3575   1.403       .  A
C3108      C3109   1.407       .  A
C3109      C3110   1.410       .  A
C3109     Br3116   1.925       .  S
C3110      C3111   1.408       .  A
C3110     Br3115   1.924       .  S
C3111      C3580   1.412       .  A
C3112      C3579   1.411       .  A
C3112     Br3113   1.928   1_556  S
C3117      C3118   1.406       .  A
C3117      C3122   1.403       .  A
C3117     Br3124   1.932       .  S
C3118      C3119   1.409       .  A
C3119      C3120   1.412       .  A
C3119     Br3126   1.927       .  S
C3120      C3121   1.414       .  A
C3120     Br3125   1.925       .  S
C3121      C3122   1.414       .  A
C3122     Br3123   1.926       .  S
C3127      C3128   1.419       .  A
C3127      C3132   1.411       .  A
C3128      C3129   1.421       .  A
C3129      C3130   1.408       .  A
C3129     Br3136   1.933       .  S
C3130      C3131   1.408       .  A
C3130     Br3135   1.935       .  S
C3131      C3132   1.406       .  A
C3132     Br3133   1.929       .  S
C3137      C3138   1.417       .  A
C3137      C3142   1.417       .  A
C3138      C3139   1.412       .  A
C3139      C3140   1.408       .  A
C3139     Br3146   1.935       .  S
C3140      C3141   1.420       .  A
C3140     Br3145   1.937       .  S
C3141      C3142   1.417       .  A
C3142     Br3143   1.931       .  S
C3147      C3148   1.420       .  A
C3147      C3152   1.413       .  A
C3148      C3149   1.423       .  A
C3149      C3150   1.402       .  A
C3149     Br3156   1.940       .  S
C3150      C3151   1.407       .  A
C3150     Br3155   1.936       .  S
C3151      C3152   1.413       .  A
C3157      C3158   1.406       .  A
C3157      C3162   1.412       .  A
C3157     Br3164   1.933       .  S
C3158      C3159   1.406       .  A
C3159      C3160   1.412       .  A
C3160      C3161   1.426       .  A
C3160     Br3165   1.936       .  S
C3161      C3162   1.427       .  A
C3162     Br3163   1.935       .  S
C3167      C3168   1.403       .  A
C3167      C3172   1.403       .  A
C3167     Br3174   1.932       .  S
C3168      C3169   1.402       .  A
C3169      C3170   1.407       .  A
C3169     Br3176   1.931       .  S
C3170      C3171   1.420       .  A
C3171      C3172   1.419       .  A
C3172     Br3173   1.934       .  S
C3177      C3178   1.428       .  A
C3177      C3182   1.414       .  A
C3178      C3179   1.424       .  A
C3179      C3180   1.412       .  A
C3179     Br3186   1.935       .  S
C3180      C3181   1.405       .  A
C3180     Br3185   1.930       .  S
C3181      C3182   1.407       .  A
C3182     Br3183   1.935       .  S
C3187      C3188   1.420       .  A
C3187      C3192   1.408       .  A
C3187     Br3194   1.933       .  S
C3188      C3189   1.421       .  A
C3189      C3190   1.407       .  A
C3190      C3191   1.405       .  A
C3191      C3192   1.407       .  A
C3192     Br3193   1.932       .  S
C3197      C3198   1.413       .  A
C3197      C3202   1.412       .  A
C3197     Br3204   1.923       .  S
C3198      C3199   1.420       .  A
C3199      C3200   1.401       .  A
C3199     Br3206   1.937       .  S
C3200      C3201   1.401       .  A
C3200     Br3205   1.933       .  S
C3201      C3202   1.407       .  A
C3202     Br3203   1.926       .  S
C3207      C3208   1.409       .  A
C3207      C3212   1.407       .  A
C3207     Br3214   1.932       .  S
C3208      C3209   1.414       .  A
C3209      C3210   1.412       .  A
C3209     Br3216   1.930       .  S
C3210      C3211   1.409       .  A
C3210     Br3215   1.925       .  S
C3211      C3212   1.412       .  A
C3212     Br3213   1.928       .  S
C3217      C3218   1.414       .  A
C3217      C3222   1.417       .  A
C3217     Br3224   1.927       .  S
C3218      C3219   1.414       .  A
C3219      C3220   1.407       .  A
C3219     Br3226   1.934       .  S
C3220      C3221   1.408       .  A
C3220     Br3225   1.927       .  S
C3221      C3222   1.409       .  A
C3222     Br3223   1.926       .  S
C3227      C3228   1.403       .  A
C3227      C3232   1.408       .  A
C3227     Br3234   1.935       .  S
C3228      C3229   1.407       .  A
C3229      C3230   1.415       .  A
C3229     Br3236   1.931       .  S
C3230      C3231   1.421       .  A
C3230     Br3235   1.930       .  S
C3231      C3232   1.427       .  A
C3232     Br3233   1.937       .  S
C3237      C3238   1.407       .  A
C3237      C3242   1.412       .  A
C3237     Br3244   1.937       .  S
C3238      C3239   1.408       .  A
C3239      C3240   1.417       .  A
C3239     Br3246   1.930       .  S
C3240      C3241   1.424       .  A
C3240     Br3245   1.932       .  S
C3241      C3242   1.430       .  A
C3242     Br3243   1.940       .  S
C3247      C3248   1.419       .  A
C3247      C3252   1.408       .  A
C3247     Br3254   1.937       .  S
C3248      C3249   1.421       .  A
C3249      C3250   1.414       .  A
C3249     Br3256   1.932       .  S
C3250      C3251   1.406       .  A
C3250     Br3255   1.929       .  S
C3251      C3252   1.412       .  A
C3252     Br3253   1.937       .  S
C3257      C3258   1.411       .  A
C3257      C3262   1.414       .  A
C3257     Br3264   1.923       .  S
C3258      C3259   1.408       .  A
C3259      C3260   1.394       .  A
C3259     Br3266   1.926       .  S
C3260      C3261   1.405       .  A
C3260     Br3265   1.930       .  S
C3261      C3262   1.408       .  A
C3262     Br3263   1.925       .  S
C3267      C3268   1.406       .  A
C3267      C3272   1.404       .  A
C3267     Br3274   1.931       .  S
C3268      C3269   1.410       .  A
C3269      C3270   1.413       .  A
C3269     Br3276   1.928       .  S
C3270      C3271   1.415       .  A
C3270     Br3275   1.926       .  S
C3271      C3272   1.415       .  A
C3272     Br3273   1.932       .  S
Fe3277     O3293   2.076       .  S
Fe3277     O3283   2.037       .  S
Fe3277     O3290   2.017       .  S
Fe3277     O3282   2.056       .  S
Fe3277     O3288   1.936       .  S
Fe3278     O3281   2.103       .  S
Fe3278     O3285   2.085       .  S
Fe3278     O3289   2.132       .  S
Fe3278     O3294   2.075       .  S
Fe3278     O3288   1.953       .  S
Fe3279     O3297   2.062       .  S
Fe3279     O3284   2.073       .  S
Fe3279     O3291   2.095       .  S
Fe3279     O3280   2.073       .  S
Fe3279     O3288   1.961       .  S
O3280      C3287   1.267       .  A
O3281      C3295   1.277       .  A
O3282      C3287   1.267       .  A
O3283      C3286   1.266       .  A
O3284      C3296   1.272       .  A
O3285      C3298   1.270       .  A
C3286      O3291   1.273       .  A
C3286      C3729   1.465       .  S
C3287      C3736   1.476       .  S
O3289      C3292   1.281       .  A
O3290      C3292   1.260       .  A
C3292      C3719   1.487       .  S
O3293      C3298   1.266       .  A
O3294      C3296   1.273       .  A
C3295      O3297   1.270       .  A
C3295      C3686   1.491       .  S
C3296      C3696   1.474       .  S
C3298      C3709   1.513       .  S
Fe3299     O3315   2.035       .  S
Fe3299     O3305   2.062       .  S
Fe3299     O3312   2.062       .  S
Fe3299     O3304   2.053       .  S
Fe3299     O3310   1.941       .  S
Fe3300     O3303   2.051       .  S
Fe3300     O3311   2.061       .  S
Fe3300     O3316   2.100       .  S
Fe3301     O3319   2.074       .  S
Fe3301     O3306   2.065       .  S
Fe3301     O3313   2.077       .  S
Fe3301     O3302   2.073       .  S
Fe3301     O3310   1.963       .  S
O3302      C3309   1.266       .  A
O3303      C3317   1.264       .  A
O3304      C3309   1.265       .  A
O3305      C3308   1.273       .  A
O3307      C3320   1.270       .  A
C3308      O3313   1.273       .  A
C3308      C3676   1.482       .  S
C3309      C3726   1.469       .  S
O3312      C3314   1.270       .  A
C3314      C3669   1.463       .  S
O3315      C3320   1.262       .  A
O3316      C3318   1.276       .  A
C3317      C3639   1.483       .  S
C3318      C3646   1.512       .  S
C3320      C3659   1.478       .  S
Fe3321     O3337   2.070       .  S
Fe3321     O3327   2.051       .  S
Fe3321     O3334   2.044       .  S
Fe3321     O3326   2.056       .  S
Fe3321     O3332   1.968       .  S
Fe3322     O3325   2.069   1_455  S
Fe3322     O3338   2.070   1_455  S
Fe3323     O3341   2.074       .  S
Fe3323     O3328   2.067       .  S
Fe3323     O3335   2.086       .  S
Fe3323     O3324   2.089       .  S
Fe3323     O3332   1.988       .  S
O3324      C3331   1.271       .  A
O3325      C3339   1.271       .  A
O3326      C3331   1.267       .  A
O3327      C3330   1.268       .  A
O3329      C3342   1.268       .  A
C3330      O3335   1.271       .  A
C3330      C3739   1.488       .  S
C3331      C3679   1.488       .  S
O3333      C3336   1.270       .  A
O3334      C3336   1.264       .  A
C3336      C3616   1.490       .  S
O3337      C3342   1.269       .  A
O3338      C3340   1.268   1_655  A
C3339      C3606   1.494       .  S
C3340      C3596   1.500   1_455  S
C3342      C3626   1.483       .  S
Fe3343     O3359   2.021       .  S
Fe3343     O3349   2.053       .  S
Fe3343     O3356   2.072       .  S
Fe3343     O3348   2.035       .  S
Fe3343     O3354   1.938       .  S
Fe3344     O3351   2.090       .  S
Fe3344     O3355   2.082       .  S
Fe3344     O3354   1.954       .  S
Fe3345     O3363   2.068       .  S
Fe3345     O3350   2.061       .  S
Fe3345     O3357   2.069       .  S
Fe3345     O3346   2.066       .  S
O3346      C3353   1.267       .  A
O3347      C3361   1.273       .  A
O3350      C3362   1.266       .  A
O3351      C3364   1.270       .  A
C3352      O3357   1.268       .  A
C3352      C3586   1.475       .  S
C3353      C3576   1.455       .  S
O3355      C3358   1.273       .  A
O3356      C3358   1.268       .  A
C3358      C3699   1.498       .  S
O3359      C3364   1.261       .  A
O3360      C3362   1.270       .  A
C3361      O3363   1.271       .  A
C3361      C3569   1.473       .  S
C3362      C3556   1.495       .  S
C3364      C3636   1.461       .  S
Fe3365     O3381   2.038       .  S
Fe3365     O3371   2.066       .  S
Fe3365     O3378   2.076       .  S
Fe3365     O3370   2.046       .  S
Fe3365     O3376   1.965       .  S
Fe3366     O3373   2.098       .  S
Fe3366     O3377   2.073       .  S
Fe3366     O3376   1.976       .  S
Fe3367     O3385   2.072       .  S
Fe3367     O3372   2.072       .  S
Fe3367     O3379   2.098       .  S
Fe3367     O3368   2.088       .  S
O3368      C3375   1.271       .  A
O3369      C3383   1.269       .  A
O3372      C3384   1.271       .  A
O3373      C3386   1.272       .  A
C3374      O3379   1.274       .  A
C3374      C3549   1.492       .  S
C3375      C3589   1.489       .  S
O3377      C3380   1.269       .  A
O3378      C3380   1.271       .  A
C3380      C3649   1.485       .  S
O3381      C3386   1.263       .  A
O3382      C3384   1.276       .  A
C3383      O3385   1.271       .  A
C3383      C3526   1.502       .  S
C3384      C3539   1.503       .  S
C3386      C3609   1.496       .  S
Fe3387     O3403   2.081       .  S
Fe3387     O3393   2.033       .  S
Fe3387     O3400   2.026       .  S
Fe3387     O3392   2.068       .  S
Fe3387     O3398   1.945       .  S
Fe3388     O3395   2.081       .  S
Fe3388     O3399   2.098       .  S
Fe3388     O3398   1.962       .  S
Fe3389     O3407   2.076       .  S
Fe3389     O3394   2.083       .  S
Fe3389     O3401   2.077       .  S
Fe3389     O3390   2.084       .  S
O3390      C3397   1.274       .  A
O3391      C3405   1.273       .  A
O3394      C3406   1.273       .  A
O3395      C3408   1.273       .  A
C3396      O3401   1.268       .  A
C3396      C3579   1.463       .  S
C3397      C3546   1.490       .  S
O3399      C3402   1.272       .  A
O3400      C3402   1.260       .  A
C3402      C3599   1.477       .  S
O3403      C3408   1.273       .  A
O3404      C3406   1.269       .  A
C3405      O3407   1.270       .  A
C3405      C3509   1.510       .  S
C3406      C3516   1.491       .  S
C3408      C3689   1.484       .  S
Fe3409     O3425   2.058       .  S
Fe3409     O3415   2.057       .  S
Fe3409     O3422   2.053       .  S
Fe3409     O3414   2.055       .  S
Fe3409     O3420   1.968       .  S
Fe3410     O3413   2.079       .  S
Fe3410     O3417   2.092       .  S
Fe3410     O3421   2.109       .  S
Fe3410     O3426   2.088       .  S
Fe3410     O3420   1.988       .  S
Fe3411     O3429   2.077       .  S
Fe3411     O3416   2.036       .  S
Fe3411     O3423   2.061       .  S
Fe3411     O3412   2.085       .  S
Fe3411     O3420   1.982       .  S
O3412      C3419   1.270       .  A
O3413      C3427   1.273       .  A
O3414      C3419   1.268       .  A
O3415      C3418   1.267       .  A
O3416      C3428   1.263       .  A
O3417      C3430   1.272       .  A
C3418      O3423   1.264       .  A
C3418      C3496   1.477       .  S
O3421      C3424   1.275       .  A
O3422      C3424   1.265       .  A
C3424      C3536   1.520       .  S
O3425      C3430   1.267       .  A
O3426      C3428   1.274       .  A
C3427      O3429   1.272       .  A
C3427      C3706   1.487       .  S
C3428      C3666   1.484       .  S
C3430      C3506   1.484       .  S
Fe3431     O3447   2.030       .  S
Fe3431     O3437   2.055       .  S
Fe3431     O3444   2.062       .  S
Fe3431     O3436   2.031       .  S
Fe3431     O3442   1.958       .  S
Fe3432     O3435   2.069       .  S
Fe3432     O3439   2.087       .  S
Fe3432     O3443   2.064       .  S
Fe3432     O3448   2.073       .  S
Fe3432     O3442   1.972       .  S
Fe3433     O3451   2.061       .  S
Fe3433     O3438   2.054       .  S
Fe3433     O3445   2.075       .  S
Fe3433     O3434   2.085       .  S
Fe3433     O3442   1.984       .  S
O3434      C3441   1.270       .  A
O3435      C3449   1.268       .  A
O3436      C3441   1.264       .  A
O3437      C3440   1.267       .  A
O3438      C3450   1.267       .  A
O3439      C3452   1.271       .  A
C3440      O3445   1.268       .  A
O3443      C3446   1.266       .  A
O3444      C3446   1.268       .  A
C3446      C3519   1.481       .  S
O3447      C3452   1.261       .  A
O3448      C3450   1.271       .  A
C3449      O3451   1.268       .  A
C3449      C3656   1.490       .  S
C3450      C3619   1.499       .  S
C3452      C3566   1.490       .  S
Fe3453     O3469   2.054       .  S
Fe3453     O3459   2.053       .  S
Fe3453     O3466   2.062       .  S
Fe3453     O3458   2.049       .  S
Fe3453     O3464   1.974       .  S
Fe3454     O3457   2.068       .  S
Fe3454     O3461   2.085       .  S
Fe3454     O3465   2.071       .  S
Fe3454     O3470   2.076       .  S
Fe3454     O3464   1.977       .  S
Fe3455     O3473   2.066       .  S
Fe3455     O3460   2.071       .  S
Fe3455     O3467   2.086       .  S
Fe3455     O3456   2.076       .  S
Fe3455     O3464   1.985       .  S
O3456      C3463   1.268       .  A
O3457      C3471   1.267       .  A
O3458      C3463   1.266       .  A
O3459      C3462   1.268       .  A
O3460      C3472   1.271       .  A
O3461      C3474   1.271       .  A
C3462      O3467   1.272       .  A
C3463      C3479   1.488       .  S
O3465      C3468   1.268       .  A
O3466      C3468   1.268       .  A
C3468      C3559   1.474       .  S
O3469      C3474   1.265       .  A
O3470      C3472   1.272       .  A
C3471      O3473   1.267       .  A
C3471      C3629   1.507       .  S
C3472      C3716   1.495       .  S
C3474      C3529   1.489       .  S
C3475      C3476   1.407       .  A
C3475      C3480   1.403       .  A
C3475     Br3482   1.927       .  S
C3476      C3477   1.406       .  A
C3477      C3478   1.412       .  A
C3478      C3479   1.417       .  A
C3478     Br3483   1.927       .  S
C3479      C3480   1.412       .  A
C3480     Br3481   1.931       .  S
C3485      C3486   1.414       .  A
C3485      C3490   1.413       .  A
C3486      C3487   1.411       .  A
C3487      C3488   1.405       .  A
C3487     Br3494   1.932       .  S
C3488      C3489   1.412       .  A
C3488     Br3493   1.931       .  S
C3489      C3490   1.413       .  A
C3495      C3496   1.412       .  A
C3495      C3500   1.408       .  A
C3495     Br3502   1.925       .  S
C3496      C3497   1.407       .  A
C3497      C3498   1.402       .  A
C3497     Br3504   1.928       .  S
C3498      C3499   1.411       .  A
C3498     Br3503   1.931       .  S
C3499      C3500   1.409       .  A
C3505      C3506   1.405       .  A
C3505      C3510   1.414       .  A
C3505     Br3512   1.928       .  S
C3506      C3507   1.403       .  A
C3507      C3508   1.412       .  A
C3507     Br3514   1.931       .  S
C3508      C3509   1.425       .  A
C3508     Br3513   1.933   1_556  S
C3509      C3510   1.427       .  A
C3510     Br3511   1.934       .  S
C3515      C3520   1.405       .  A
C3515     Br3522   1.936       .  S
C3516      C3517   1.420       .  A
C3517      C3518   1.411   1_655  A
C3517     Br3524   1.934       .  S
C3518     Br3523   1.933       .  S
C3519      C3520   1.408       .  A
C3520     Br3521   1.928       .  S
C3525      C3526   1.420       .  A
C3525     Br3532   1.936       .  S
C3526      C3527   1.422       .  A
C3527     Br3534   1.938   1_556  S
C3528      C3529   1.412       .  A
C3528     Br3533   1.931       .  S
C3529      C3530   1.410       .  A
C3530     Br3531   1.932       .  S
C3535      C3536   1.421       .  A
C3535     Br3542   1.928       .  S
C3537      C3538   1.412       .  A
C3537     Br3544   1.940       .  S
C3538      C3539   1.413       .  A
C3538     Br3543   1.933       .  S
C3539      C3540   1.416       .  A
C3540     Br3541   1.934       .  S
C3545      C3546   1.415       .  A
C3545      C3550   1.416       .  A
C3545     Br3552   1.929       .  S
C3546      C3547   1.410       .  A
C3547      C3548   1.410       .  A
C3547     Br3554   1.931   1_556  S
C3548      C3549   1.413       .  A
C3548     Br3553   1.928   1_556  S
C3549      C3550   1.411       .  A
C3550     Br3551   1.924       .  S
C3555      C3556   1.420       .  A
C3555      C3560   1.407       .  A
C3555     Br3562   1.933   1_556  S
C3556      C3557   1.423       .  A
C3557      C3558   1.409       .  A
C3557     Br3564   1.934       .  S
C3558      C3559   1.405       .  A
C3558     Br3563   1.931       .  S
C3559      C3560   1.402       .  A
C3560     Br3561   1.923       .  S
C3565      C3566   1.418       .  A
C3565     Br3572   1.935       .  S
C3566      C3567   1.423   1_565  A
C3567     Br3574   1.935   1_545  S
C3568      C3569   1.404       .  A
C3568     Br3573   1.937       .  S
C3569      C3570   1.410       .  A
C3570     Br3571   1.933       .  S
C3575      C3580   1.393       .  A
C3575     Br3582   1.937       .  S
C3576      C3577   1.407       .  A
C3577      C3578   1.409       .  A
C3577     Br3584   1.927       .  S
C3578      C3579   1.409       .  A
C3578     Br3583   1.925       .  S
C3580     Br3581   1.927       .  S
C3585      C3586   1.405       .  A
C3585      C3590   1.403       .  A
C3585     Br3592   1.932   1_556  S
C3586      C3587   1.409       .  A
C3587      C3588   1.412       .  A
C3587     Br3594   1.928       .  S
C3588      C3589   1.415       .  A
C3588     Br3593   1.926       .  S
C3589      C3590   1.415       .  A
C3590     Br3591   1.927   1_556  S
C3595      C3596   1.422       .  A
C3595      C3600   1.411       .  A
C3596      C3597   1.422       .  A
C3597      C3598   1.408       .  A
C3597     Br3604   1.935       .  S
C3598      C3599   1.408       .  A
C3598     Br3603   1.936       .  S
C3599      C3600   1.406       .  A
C3600     Br3601   1.930       .  S
C3605      C3606   1.416       .  A
C3605      C3610   1.416       .  A
C3606      C3607   1.415       .  A
C3607      C3608   1.407       .  A
C3607     Br3614   1.935       .  S
C3608      C3609   1.416       .  A
C3608     Br3613   1.937       .  S
C3609      C3610   1.417       .  A
C3610     Br3611   1.931       .  S
C3615      C3616   1.414       .  A
C3615      C3620   1.412       .  A
C3616      C3617   1.415       .  A
C3617      C3618   1.407       .  A
C3617     Br3624   1.935       .  S
C3618      C3619   1.420       .  A
C3618     Br3623   1.939       .  S
C3619      C3620   1.423       .  A
C3625      C3626   1.404       .  A
C3625      C3630   1.409       .  A
C3625     Br3632   1.924       .  S
C3626      C3627   1.405       .  A
C3627      C3628   1.413       .  A
C3628      C3629   1.427       .  A
C3628     Br3633   1.935       .  S
C3629      C3630   1.426       .  A
C3630     Br3631   1.938       .  S
C3635      C3636   1.404       .  A
C3635      C3640   1.404       .  A
C3635     Br3642   1.932       .  S
C3636      C3637   1.402       .  A
C3637      C3638   1.405       .  A
C3637     Br3644   1.931       .  S
C3638      C3639   1.418       .  A
C3639      C3640   1.418       .  A
C3640     Br3641   1.934       .  S
C3645      C3646   1.429       .  A
C3645      C3650   1.414       .  A
C3646      C3647   1.424       .  A
C3647      C3648   1.412       .  A
C3647     Br3654   1.935       .  S
C3648      C3649   1.404       .  A
C3648     Br3653   1.930       .  S
C3649      C3650   1.406       .  A
C3650     Br3651   1.934       .  S
C3655      C3656   1.418       .  A
C3655      C3660   1.407       .  A
C3655     Br3662   1.934       .  S
C3656      C3657   1.417       .  A
C3657      C3658   1.408       .  A
C3658      C3659   1.408       .  A
C3659      C3660   1.410       .  A
C3660     Br3661   1.935       .  S
C3665      C3666   1.414       .  A
C3665      C3670   1.410       .  A
C3665     Br3672   1.920       .  S
C3666      C3667   1.421       .  A
C3667      C3668   1.400       .  A
C3667     Br3674   1.939       .  S
C3668      C3669   1.400       .  A
C3668     Br3673   1.933       .  S
C3669      C3670   1.405       .  A
C3670     Br3671   1.928       .  S
C3675      C3676   1.408       .  A
C3675      C3680   1.406       .  A
C3675     Br3682   1.934       .  S
C3676      C3677   1.413       .  A
C3677      C3678   1.413       .  A
C3677     Br3684   1.929       .  S
C3678      C3679   1.411       .  A
C3678     Br3683   1.925       .  S
C3679      C3680   1.414       .  A
C3680     Br3681   1.928       .  S
C3685      C3686   1.414       .  A
C3685      C3690   1.417       .  A
C3685     Br3692   1.927       .  S
C3686      C3687   1.415       .  A
C3687      C3688   1.407       .  A
C3687     Br3694   1.934       .  S
C3688      C3689   1.407       .  A
C3688     Br3693   1.930       .  S
C3689      C3690   1.409       .  A
C3690     Br3691   1.926       .  S
C3695      C3696   1.403       .  A
C3695      C3700   1.406       .  A
C3695     Br3702   1.934       .  S
C3696      C3697   1.406       .  A
C3697      C3698   1.414       .  A
C3697     Br3704   1.930       .  S
C3698      C3699   1.420       .  A
C3698     Br3703   1.930       .  S
C3699      C3700   1.424       .  A
C3700     Br3701   1.935       .  S
C3705      C3706   1.407       .  A
C3705      C3710   1.412       .  A
C3705     Br3712   1.938       .  S
C3706      C3707   1.407       .  A
C3707      C3708   1.415       .  A
C3707     Br3714   1.931       .  S
C3708      C3709   1.425       .  A
C3708     Br3713   1.933       .  S
C3709      C3710   1.430       .  A
C3710     Br3711   1.941       .  S
C3715      C3716   1.417       .  A
C3715      C3720   1.408       .  A
C3715     Br3722   1.938       .  S
C3716      C3717   1.419       .  A
C3717      C3718   1.415       .  A
C3717     Br3724   1.931       .  S
C3718      C3719   1.409       .  A
C3718     Br3723   1.928       .  S
C3719      C3720   1.415       .  A
C3720     Br3721   1.938       .  S
C3725      C3726   1.410       .  A
C3725      C3730   1.413       .  A
C3725     Br3732   1.923       .  S
C3726      C3727   1.407       .  A
C3727      C3728   1.392       .  A
C3727     Br3734   1.924       .  S
C3728      C3729   1.404       .  A
C3728     Br3733   1.927       .  S
C3729      C3730   1.408       .  A
C3730     Br3731   1.925       .  S
C3735      C3736   1.406       .  A
C3735      C3740   1.404       .  A
C3735     Br3742   1.930       .  S
C3736      C3737   1.409       .  A
C3737      C3738   1.413       .  A
C3737     Br3744   1.929       .  S
C3738      C3739   1.415       .  A
C3738     Br3743   1.926       .  S
C3739      C3740   1.413       .  A
C3740     Br3741   1.930       .  S
