geometry optimzed in LAMMPS
_audit_creation_date              2020-11-30 
_audit_creation_method            'lammps2cif' 
_symmetry_space_group_name_H-M    'P1' 
_symmetry_Int_Tables_number       1 
_symmetry_cell_setting            triclinic 
loop_ 
_symmetry_equiv_pos_as_xyz 
  x,y,z 
_cell_length_a                    36.14177647 
_cell_length_b                    63.63078538372909 
_cell_length_c                    140.360202438947 
_cell_angle_alpha                 89.92546674950032 
_cell_angle_beta                  89.77377597847547 
_cell_angle_gamma                 90.1075221226699 
loop_ 
_atom_site_label 
_atom_site_type_symbol 
_atom_site_fract_x 
_atom_site_fract_y 
_atom_site_fract_z 
_atom_site_charge 
O1          O  0.10984787  0.51484434  0.33808468    -0.80500
O2          O  0.09741489  0.50642518  0.29428561    -0.65200
O3          O  0.09708080  0.49358675  0.32086109    -1.11800
C4          C  0.22730550  0.49105358  0.31638885     1.06400
O5          O  0.13617850  0.48039056  0.29123374    -0.78400
O6          O  0.16739141  0.45742673  0.30525976    -0.66000
Ni7        Ni  0.06858291  0.50939327  0.32974439     1.34900
C8          C  0.15720942  0.45101322  0.31342619     0.85100
O9          O  0.04270488  0.50034849  0.30703709    -0.79000
O10         O  0.02511232  0.50462065  0.32233208    -0.89200
C11         C  0.11314026  0.49413050  0.28841782     0.84700
O12         O  0.07388261  0.53671655  0.32417981    -0.67500
O13         O  0.22004223  0.48754925  0.30764701    -0.86700
C14         C  0.08490240  0.54313403  0.31607684     0.85500
C15         C  0.01797582  0.50178450  0.31352681     1.07100
H16         H  0.15743752  0.51488812  0.30826007     0.38900
O17         O  0.14849353  0.50062266  0.30883840    -1.09400
O18         O  0.14941675  0.46329618  0.32031183    -0.66000
Ni19       Ni  0.14965728  0.49354758  0.32206848     1.26300
O20         O  0.09572531  0.53086359  0.30947825    -0.66300
O21         O  0.20266035  0.49383423  0.32278591    -0.78600
C22         C  0.13267417  0.50125371  0.34116391     0.84900
O23         O  0.14805336  0.48828403  0.33552110    -0.65700
Ni24       Ni  0.17669508  0.48449175  0.29996587     1.27400
Ni25       Ni  0.09584407  0.50071077  0.30768000     1.26100
H26         H  0.08822876  0.47929749  0.32140108     0.39400
O27         O  0.61150665  0.51553916  0.33797355    -0.80500
O28         O  0.58995414  0.49943062  0.29472251    -0.65200
O29         O  0.59884463  0.49147378  0.32155176    -1.11800
C30         C  0.72748063  0.49664734  0.31495954     1.06400
O31         O  0.63429561  0.47658210  0.29151632    -0.78400
O32         O  0.67163512  0.45784912  0.30572213    -0.66000
Ni33       Ni  0.56981827  0.50753974  0.33027506     1.34900
C34         C  0.66512823  0.45232704  0.31425961     0.85100
O35         O  0.54052590  0.49155288  0.30852310    -0.79000
O36         O  0.52544040  0.50047565  0.32355585    -0.89200
C37         C  0.60742246  0.48799288  0.28885768     0.84700
O38         O  0.57272677  0.53399124  0.32390037    -0.67500
O39         O  0.71917634  0.49115897  0.30650005    -0.86700
C40         C  0.57832348  0.53911711  0.31526876     0.85500
C41         C  0.51694776  0.49441269  0.31518078     1.07100
H42         H  0.65090475  0.51467443  0.30723843     0.38900
O43         O  0.64549965  0.50001459  0.30840929    -1.09400
O44         O  0.65730733  0.46521620  0.32087370    -0.66000
Ni45       Ni  0.65124674  0.49522841  0.32179240     1.26300
O46         O  0.58622829  0.52590020  0.30880616    -0.66300
O47         O  0.70376735  0.49923006  0.32159129    -0.78600
C48         C  0.63635354  0.50320603  0.34102815     0.84900
O49         O  0.65391167  0.49132617  0.33533214    -0.65700
Ni50       Ni  0.67513657  0.48445404  0.29957620     1.27400
Ni51       Ni  0.59306392  0.49589875  0.30820169     1.26100
H52         H  0.59309586  0.47690083  0.32282569     0.39400
O53         O  0.25895911  0.52143003  0.41274353    -0.80500
O54         O  0.27219932  0.51507603  0.45667968    -0.65200
O55         O  0.27166363  0.50104688  0.43022748    -1.11800
C56         C  0.14147920  0.49892413  0.43503105     1.06400
O57         O  0.23385928  0.48893256  0.45987666    -0.78400
O58         O  0.20145316  0.46536848  0.44614649    -0.66000
Ni59       Ni  0.30026805  0.51633785  0.42112983     1.34900
C60         C  0.21097420  0.45895415  0.43793346     0.85100
O61         O  0.32657014  0.50805435  0.44389526    -0.79000
O62         O  0.34382194  0.51173696  0.42853371    -0.89200
C63         C  0.25552167  0.50342441  0.46266964     0.84700
O64         O  0.29563871  0.54394879  0.42644643    -0.67500
O65         O  0.14905360  0.49553140  0.44376827    -0.86700
C66         C  0.28537963  0.55066849  0.43456153     0.85500
C67         C  0.35113991  0.50918188  0.43734931     1.07100
H68         H  0.21197012  0.52300425  0.44281720     0.38900
O69         O  0.22070148  0.50870937  0.44229182    -1.09400
O70         O  0.21869866  0.47120602  0.43104111    -0.66000
Ni71       Ni  0.21901138  0.50127137  0.42913102     1.26300
O72         O  0.27431883  0.53867435  0.44125840    -0.66300
O73         O  0.16592029  0.50167630  0.42855925    -0.78600
C74         C  0.23615357  0.50755484  0.40988335     0.84900
O75         O  0.22015519  0.49531984  0.41576377    -0.65700
Ni76       Ni  0.19277328  0.49265885  0.45131754     1.27400
Ni77       Ni  0.27343952  0.50864077  0.44334488     1.26100
H78         H  0.28017729  0.48669018  0.42980132     0.39400
O79         O  0.75865879  0.52038940  0.41283077    -0.80500
O80         O  0.77630497  0.51575195  0.45684023    -0.65200
O81         O  0.77083123  0.50060768  0.43045427    -1.11800
C82         C  0.64141794  0.50486631  0.43612807     1.06400
O83         O  0.73454155  0.49166112  0.46043932    -0.78400
O84         O  0.69708965  0.46908222  0.44724218    -0.66000
Ni85       Ni  0.80000907  0.51419341  0.42097317     1.34900
C86         C  0.70573850  0.46181940  0.43910995     0.85100
O87         O  0.82820066  0.50539069  0.44366695    -0.79000
O88         O  0.84377084  0.50861766  0.42816079    -0.89200
C89         C  0.75830422  0.50524395  0.46303195     0.84700
O90         O  0.79774433  0.54207320  0.42587657    -0.67500
O91         O  0.64932366  0.50183945  0.44487151    -0.86700
C92         C  0.79054069  0.54974765  0.43401930     0.85500
C93         C  0.85196226  0.50562142  0.43689631     1.07100
H94         H  0.71609136  0.52597981  0.44315595     0.38900
O95         O  0.72257136  0.51127681  0.44275935    -1.09400
O96         O  0.71446825  0.47332909  0.43204366    -0.66000
Ni97       Ni  0.71829454  0.50311825  0.42969686     1.26300
O98         O  0.78085752  0.53855046  0.44113810    -0.66300
O99         O  0.66546822  0.50578754  0.42947038    -0.78600
C100        C  0.73396197  0.50739298  0.41025383     0.84900
O101        O  0.71689207  0.49624063  0.41637329    -0.65700
Ni102      Ni  0.69322931  0.49705911  0.45214067     1.27400
Ni103      Ni  0.77526597  0.50869750  0.44350514     1.26100
H104        H  0.77738712  0.48591079  0.43010385     0.39400
O105        O  0.50676838  0.73497881  0.33943227    -0.80500
O106        O  0.52481020  0.72972034  0.29496303    -0.65200
O107        O  0.51947813  0.74991924  0.32060688    -1.11800
C108        C  0.39024854  0.74775950  0.31437964     1.06400
O109        O  0.48757425  0.75533501  0.29066461    -0.78400
O110        O  0.45023812  0.78055825  0.30272025    -0.66000
Ni111      Ni  0.54789509  0.73770742  0.33061550     1.34900
C112        C  0.45780922  0.78860288  0.31074129     0.85100
O113        O  0.57660239  0.74076755  0.30758400    -0.79000
O114        O  0.59240721  0.73970526  0.32305074    -0.89200
C115        C  0.50897408  0.74027603  0.28848432     0.84700
O116        O  0.54061884  0.70920310  0.32702513    -0.67500
O117        O  0.39932588  0.74974829  0.30563318    -0.86700
C118        C  0.53282896  0.70011467  0.31925201     0.85500
C119        C  0.60056065  0.74073535  0.31420066     1.07100
H120        H  0.46312964  0.72385082  0.30846041     0.38900
O121        O  0.47113577  0.73836516  0.30849574    -1.09400
O122        O  0.46472449  0.77782760  0.31813048    -0.66000
Ni123      Ni  0.46658564  0.74836027  0.32119194     1.26300
O124        O  0.52608686  0.70988527  0.31151725    -0.66300
O125        O  0.41350675  0.74663191  0.32118313    -0.78600
C126        C  0.47861767  0.74660332  0.34083411     0.84900
O127        O  0.46398684  0.75701832  0.33415148    -0.65700
Ni128      Ni  0.44449539  0.75219856  0.29858748     1.27400
Ni129      Ni  0.52382617  0.73923672  0.30789801     1.26100
H130        H  0.52687867  0.76451357  0.32036909     0.39400
O131        O  0.00679679  0.73465483  0.33689759    -0.80500
O132        O  0.02428739  0.74411754  0.29215861    -0.65200
O133        O  0.02044864  0.75434435  0.31905496    -1.11800
C134        C  0.89049009  0.75176015  0.31301952     1.06400
O135        O  0.98582929  0.77067149  0.29067766    -0.78400
O136        O  0.94188950  0.78836629  0.30361448    -0.66000
Ni137      Ni  0.04782468  0.73833973  0.32803858     1.34900
C138        C  0.95507043  0.79524153  0.31135436     0.85100
O139        O  0.07683001  0.75049376  0.30543884    -0.79000
O140        O  0.09190406  0.74143014  0.32043448    -0.89200
C141        C  0.00821006  0.75773103  0.28698333     0.84700
O142        O  0.03812616  0.71142822  0.32258855    -0.67500
O143        O  0.89848345  0.75351328  0.30417663    -0.86700
C144        C  0.03218521  0.70536534  0.31409716     0.85500
C145        C  0.10048729  0.74676019  0.31192678     1.07100
H146        H  0.96422484  0.73186357  0.30597822     0.38900
O147        O  0.97152501  0.74641282  0.30659273    -1.09400
O148        O  0.96792163  0.78341759  0.31780291    -0.66000
Ni149      Ni  0.96770788  0.75348448  0.31964540     1.26300
O150        O  0.02722124  0.71796753  0.30714079    -0.66300
O151        O  0.91441460  0.75262929  0.31969588    -0.78600
C152        C  0.98057481  0.74723547  0.33903776     0.84900
O153        O  0.96622180  0.75929343  0.33289947    -0.65700
Ni154      Ni  0.94286565  0.76160833  0.29763110     1.27400
Ni155      Ni  0.02406233  0.74825664  0.30574580     1.26100
H156        H  0.02868569  0.76867892  0.31987954     0.39400
O157        O  0.38956385  0.73653224  0.41567973    -0.80500
O158        O  0.37401881  0.74939261  0.46018769    -0.65200
O159        O  0.37805734  0.75841206  0.43313451    -1.11800
C160        C  0.50749581  0.75770286  0.43912926     1.06400
O161        O  0.41045279  0.77707764  0.46136568    -0.78400
O162        O  0.45023529  0.79566626  0.44766094    -0.66000
Ni163      Ni  0.34900164  0.74287362  0.42428201     1.34900
C164        C  0.44178318  0.80040279  0.43917407     0.85100
O165        O  0.32121771  0.75444877  0.44685441    -0.79000
O166        O  0.30531080  0.74816813  0.43164378    -0.89200
C167        C  0.38888929  0.76377029  0.46519878     0.84700
O168        O  0.35407347  0.71609981  0.43020811    -0.67500
O169        O  0.49919324  0.76298188  0.44766114    -0.86700
C170        C  0.36217186  0.70997680  0.43857013     0.85500
C171        C  0.29722876  0.75206844  0.44031482     1.07100
H172        H  0.43473290  0.73763138  0.44706861     0.38900
O173        O  0.42678331  0.75186289  0.44582460    -1.09400
O174        O  0.43346318  0.78676278  0.43296050    -0.66000
Ni175      Ni  0.43083014  0.75656017  0.43253040     1.26300
O176        O  0.37159545  0.72244488  0.44528324    -0.66300
O177        O  0.48372551  0.75469045  0.43256700    -0.78600
C178        C  0.41720076  0.74783874  0.41327395     0.84900
O179        O  0.43295474  0.76001940  0.41910720    -0.65700
Ni180      Ni  0.45392353  0.76951112  0.45423907     1.27400
Ni181      Ni  0.37417876  0.75290754  0.44653083     1.26100
H182        H  0.37094802  0.77290929  0.43223153     0.39400
O183        O  0.89107964  0.74025603  0.41337066    -0.80500
O184        O  0.86823563  0.74260336  0.45783399    -0.65200
O185        O  0.87987998  0.75853824  0.43168755    -1.11800
C186        C  0.00729579  0.75174726  0.43844124     1.06400
O187        O  0.91206452  0.76444695  0.46257382    -0.78400
O188        O  0.94621127  0.78793568  0.44941606    -0.66000
Ni189      Ni  0.85020133  0.74594282  0.42194984     1.34900
C190        C  0.94283977  0.79520129  0.44104745     0.85100
O191        O  0.82064048  0.75507041  0.44457354    -0.79000
O192        O  0.80567948  0.75084311  0.42917906    -0.89200
C193        C  0.88532836  0.75211404  0.46441964     0.84700
O194        O  0.85280811  0.71773464  0.42648497    -0.67500
O195        O  0.99811370  0.75693453  0.44688771    -0.86700
C196        C  0.85741272  0.70977666  0.43470147     0.85500
C197        C  0.79715932  0.75428633  0.43786722     1.07100
H198        H  0.93018216  0.73122019  0.44511859     0.38900
O199        O  0.92492055  0.74605913  0.44453254    -1.09400
O200        O  0.93975888  0.78357313  0.43372432    -0.66000
Ni201      Ni  0.93211333  0.75386037  0.43149974     1.26300
O202        O  0.86497176  0.72068851  0.44204521    -0.66300
O203        O  0.98416318  0.74882091  0.43176840    -0.78600
C204        C  0.92085971  0.75041252  0.41177411     0.84900
O205        O  0.93718247  0.76050662  0.41830235    -0.65700
Ni206      Ni  0.95331855  0.76018697  0.45409435     1.27400
Ni207      Ni  0.87269443  0.75022760  0.44469002     1.26100
H208        H  0.87517248  0.77346725  0.43133419     0.39400
O209        O  0.23803943  0.22852085  0.33756691    -0.80500
O210        O  0.26146844  0.23229608  0.29368063    -0.65200
O211        O  0.25276693  0.24800263  0.31978932    -1.11800
C212        C  0.12423955  0.24645440  0.31285335     1.06400
O213        O  0.22260514  0.25731735  0.28945920    -0.78400
O214        O  0.18626603  0.28134590  0.30245669    -0.66000
Ni215      Ni  0.28052760  0.23413194  0.32950120     1.34900
C216        C  0.19224644  0.28797992  0.31084682     0.85100
O217        O  0.31156561  0.24162509  0.30704167    -0.79000
O218        O  0.32571774  0.23913320  0.32260219    -0.89200
C219        C  0.24511739  0.24274603  0.28726656     0.84700
O220        O  0.27786094  0.20619735  0.32456806    -0.67500
O221        O  0.13390870  0.25051150  0.30429501    -0.86700
C222        C  0.26964075  0.19872461  0.31645635     0.85500
C223        C  0.33474966  0.24144847  0.31386151     1.07100
H224        H  0.19819935  0.22388311  0.30634184     0.38900
O225        O  0.20582706  0.23838203  0.30695496    -1.09400
O226        O  0.19740944  0.27588663  0.31792561    -0.66000
Ni227      Ni  0.19998670  0.24597067  0.31996818     1.26300
O228        O  0.26057071  0.21001877  0.30936783    -0.66300
O229        O  0.14704936  0.24381826  0.31965957    -0.78600
C230        C  0.21113241  0.24073255  0.33949528     0.84900
O231        O  0.19655689  0.25224053  0.33317740    -0.65700
Ni232      Ni  0.17950207  0.25366662  0.29740972     1.27400
Ni233      Ni  0.25863398  0.23976295  0.30682131     1.26100
H234        H  0.25976936  0.26263817  0.32015989     0.39400
O235        O  0.74391892  0.23638300  0.33629289    -0.80500
O236        O  0.75643996  0.23165660  0.29271253    -0.65200
O237        O  0.75406327  0.25323046  0.31803172    -1.11800
C238        C  0.62466820  0.25183459  0.31397345     1.06400
O239        O  0.71424998  0.25431636  0.28767472    -0.78400
O240        O  0.68989669  0.28220141  0.30037555    -0.66000
Ni241      Ni  0.78460463  0.24164393  0.32775059     1.34900
C242        C  0.69496094  0.29080613  0.30838796     0.85100
O243        O  0.80985325  0.24336788  0.30479034    -0.79000
O244        O  0.82756938  0.24637464  0.32008882    -0.89200
C245        C  0.73958920  0.24096465  0.28601933     0.84700
O246        O  0.78371407  0.21282672  0.32394075    -0.67500
O247        O  0.63237966  0.25555165  0.30525085    -0.86700
C248        C  0.77174568  0.20346788  0.31658935     0.85500
C249        C  0.83460534  0.24559846  0.31118552     1.07100
H250        H  0.69584024  0.22628168  0.30673661     0.38900
O251        O  0.70383260  0.24077789  0.30663570    -1.09400
O252        O  0.69692093  0.28059697  0.31617982    -0.66000
Ni253      Ni  0.70157884  0.25112597  0.31941902     1.26300
O254        O  0.75859208  0.21297299  0.30940585    -0.66300
O255        O  0.64905409  0.24852778  0.32031072    -0.78600
C256        C  0.71994489  0.24995001  0.33868566     0.84900
O257        O  0.70221018  0.26015392  0.33241812    -0.65700
Ni258      Ni  0.67529710  0.25451060  0.29707990     1.27400
Ni259      Ni  0.75659852  0.24194136  0.30549459     1.26100
H260        H  0.76080120  0.26790260  0.31757466     0.39400
O261        O  0.12088374  0.23315311  0.41357266    -0.80500
O262        O  0.08358326  0.24568138  0.45636428    -0.65200
O263        O  0.10148156  0.25568721  0.43002028    -1.11800
C264        C  0.22750261  0.25432322  0.44038496     1.06400
O265        O  0.12042204  0.27220496  0.45963136    -0.78400
O266        O  0.16677180  0.29157752  0.44730316    -0.66000
Ni267      Ni  0.07598407  0.24022511  0.42041317     1.34900
C268        C  0.16224735  0.29691929  0.43867457     0.85100
O269        O  0.03848098  0.25240917  0.44168555    -0.79000
O270        O  0.02844891  0.24648056  0.42612126    -0.89200
C271        C  0.09735365  0.25833045  0.46233223     0.84700
O272        O  0.07650358  0.21328017  0.42646503    -0.67500
O273        O  0.21448149  0.25875566  0.44858891    -0.86700
C274        C  0.08120236  0.20740322  0.43503497     0.85500
C275        C  0.01707792  0.25062520  0.43454439     1.07100
H276        H  0.15034054  0.23399349  0.44549103     0.38900
O277        O  0.14357258  0.24844639  0.44416272    -1.09400
O278        O  0.15646991  0.28385116  0.43201020    -0.66000
Ni279      Ni  0.15440872  0.25362134  0.43114303     1.26300
O280        O  0.08824066  0.22005027  0.44180174    -0.66300
O281        O  0.20754489  0.25184876  0.43292461    -0.78600
C282        C  0.14882928  0.24475520  0.41169940     0.84900
O283        O  0.16251397  0.25712490  0.41783451    -0.65700
Ni284      Ni  0.16672447  0.26509525  0.45371078     1.27400
Ni285      Ni  0.09099424  0.25018559  0.44307945     1.26100
H286        H  0.09505886  0.27021709  0.42889714     0.39400
O287        O  0.60893747  0.24042259  0.41045991    -0.80500
O288        O  0.59064828  0.24379778  0.45367685    -0.65200
O289        O  0.59566281  0.26065805  0.42765813    -1.11800
C290        C  0.72575157  0.25772607  0.43296541     1.06400
O291        O  0.63141517  0.26831629  0.45752742    -0.78400
O292        O  0.66751873  0.29225808  0.44453304    -0.66000
Ni293      Ni  0.56669896  0.24727309  0.41816078     1.34900
C294        C  0.65968866  0.29981272  0.43640931     0.85100
O295        O  0.53771296  0.25309749  0.44071074    -0.79000
O296        O  0.52259347  0.25334374  0.42514728    -0.89200
C297        C  0.60789868  0.25433526  0.45992757     0.84700
O298        O  0.56680459  0.21929337  0.42303840    -0.67500
O299        O  0.71773104  0.26073762  0.44173296    -0.86700
C300        C  0.57773538  0.21119776  0.43079124     0.85500
C301        C  0.51393894  0.25408374  0.43396332     1.07100
H302        H  0.65191911  0.23569157  0.44003792     0.38900
O303        O  0.64448026  0.25025614  0.43974850    -1.09400
O304        O  0.65196866  0.28851308  0.42920632    -0.66000
Ni305      Ni  0.64845190  0.25868472  0.42675956     1.26300
O306        O  0.58960591  0.22196803  0.43775654    -0.66300
O307        O  0.70152652  0.25634348  0.42639418    -0.78600
C308        C  0.63234551  0.25387158  0.40756581     0.84900
O309        O  0.64920467  0.26558858  0.41345608    -0.65700
Ni310      Ni  0.67324529  0.26424647  0.44915637     1.27400
Ni311      Ni  0.59143366  0.25162540  0.44052498     1.26100
H312        H  0.58873694  0.27531591  0.42750610     0.39400
O313        O  0.35479094  0.00758126  0.33752983    -0.80500
O314        O  0.34869237  0.00643691  0.29342052    -0.65200
O315        O  0.34650022  0.98906663  0.31949449    -1.11800
C316        C  0.47723530  0.99028633  0.31604425     1.06400
O317        O  0.38957903  0.98180700  0.28991938    -0.78400
O318        O  0.41980800  0.95717444  0.30340383    -0.66000
Ni319      Ni  0.31539977  0.00252839  0.32861393     1.34900
C320        C  0.41029432  0.94957610  0.31141100     0.85100
O321        O  0.29299850  0.99705954  0.30543086    -0.79000
O322        O  0.27327085  0.99827155  0.32064864    -0.89200
C323        C  0.36634653  0.99563466  0.28732152     0.84700
O324        O  0.32009618  0.03070614  0.32410133    -0.67500
O325        O  0.47101056  0.98741789  0.30719956    -0.86700
C326        C  0.33202984  0.03872286  0.31639112     0.85500
C327        C  0.26733409  0.99712357  0.31171191     1.07100
H328        H  0.40659205  0.01383914  0.30801102     0.38900
O329        O  0.39859554  0.99933982  0.30814544    -1.09400
O330        O  0.40201142  0.96078093  0.31860616    -0.66000
Ni331      Ni  0.39894938  0.99054601  0.32116232     1.26300
O332        O  0.34395593  0.02792775  0.30941877    -0.66300
O333        O  0.45179144  0.99232968  0.32229612    -0.78600
C334        C  0.37859711  0.99431440  0.34034065     0.84900
O335        O  0.39647355  0.98313196  0.33441198    -0.65700
Ni336      Ni  0.42877046  0.98506013  0.29906679     1.27400
Ni337      Ni  0.34609043  0.99832970  0.30655804     1.26100
H338        H  0.33904432  0.97447848  0.31948274     0.39400
O339        O  0.86504029  0.01386475  0.33725299    -0.80500
O340        O  0.83820260  0.00963922  0.29342414    -0.65200
O341        O  0.84857309  0.99500008  0.31965822    -1.11800
C342        C  0.97708342  0.99862295  0.31178075     1.06400
O343        O  0.87687104  0.98395696  0.29018463    -0.78400
O344        O  0.92122456  0.96320469  0.30210870    -0.66000
Ni345      Ni  0.82183306  0.00867878  0.32954750     1.34900
C346        C  0.91220096  0.95589662  0.31018947     0.85100
O347        O  0.78888949  0.00059780  0.30728742    -0.79000
O348        O  0.77618979  0.00398989  0.32293724    -0.89200
C349        C  0.85392501  0.99770935  0.28740751     0.84700
O350        O  0.82517998  0.03654071  0.32463108    -0.67500
O351        O  0.96733555  0.99682318  0.30308279    -0.86700
C352        C  0.83180782  0.04410543  0.31641998     0.85500
C353        C  0.76637860  0.00106890  0.31431175     1.07100
H354        H  0.90158683  0.01972910  0.30617832     0.38900
O355        O  0.89457587  0.00510480  0.30665920    -1.09400
O356        O  0.90273865  0.96724619  0.31717949    -0.66000
Ni357      Ni  0.90131636  0.99688810  0.31949475     1.26300
O358        O  0.83886624  0.03287411  0.30914200    -0.66300
O359        O  0.95440573  0.99864757  0.31879078    -0.78600
C360        C  0.89163023  0.00134230  0.33899039     0.84900
O361        O  0.90556278  0.98986551  0.33256867    -0.65700
Ni362      Ni  0.92128117  0.99084694  0.29692015     1.27400
Ni363      Ni  0.84176968  0.00306074  0.30671754     1.26100
H364        H  0.84145323  0.98039037  0.32010559     0.39400
O365        O  0.49765354  0.01598161  0.41122733    -0.80500
O366        O  0.50834406  0.02237677  0.45526954    -0.65200
O367        O  0.50736564  0.00092378  0.42984626    -1.11800
C368        C  0.37673001  0.00453703  0.43347571     1.06400
O369        O  0.46319272  0.00128436  0.46008818    -0.78400
O370        O  0.43313487  0.97440534  0.44781584    -0.66000
Ni371      Ni  0.53780446  0.01299899  0.42013493     1.34900
C372        C  0.44306832  0.96444683  0.44043082     0.85100
O373        O  0.56187713  0.00976458  0.44337270    -0.79000
O374        O  0.58070310  0.01043935  0.42806329    -0.89200
C375        C  0.49014609  0.01345202  0.46188544     0.84700
O376        O  0.53257537  0.04192851  0.42352067    -0.67500
O377        O  0.38311189  0.00422728  0.44238923    -0.86700
C378        C  0.52297151  0.05102168  0.43118363     0.85500
C379        C  0.58712184  0.00933518  0.43698896     1.07100
H380        H  0.44976297  0.02886743  0.44026062     0.38900
O381        O  0.45645234  0.01423478  0.44088411    -1.09400
O382        O  0.45119890  0.97329835  0.43252827    -0.66000
Ni383      Ni  0.45491374  0.00231168  0.42833659     1.26300
O384        O  0.51332284  0.04120567  0.43867415    -0.66300
O385        O  0.40208738  0.00416597  0.42715352    -0.78600
C386        C  0.47386793  0.00204942  0.40906971     0.84900
O387        O  0.45666237  0.99186963  0.41551434    -0.65700
Ni388      Ni  0.42504733  0.00316424  0.45062542     1.27400
Ni389      Ni  0.50900947  0.01220069  0.44241669     1.26100
H390        H  0.51459953  0.98635097  0.43028135     0.39400
O391        O  0.98825237  0.01386287  0.41162815    -0.80500
O392        O  0.01494788  0.01728563  0.45555576    -0.65200
O393        O  0.00447849  0.99785529  0.42993212    -1.11800
C394        C  0.87632661  0.99981450  0.43761185     1.06400
O395        O  0.97690726  0.99215148  0.46032364    -0.78400
O396        O  0.93948607  0.96688134  0.44857694    -0.66000
Ni397      Ni  0.03105717  0.01019627  0.41957999     1.34900
C398        C  0.94496265  0.95897088  0.44040333     0.85100
O399        O  0.06435244  0.00670940  0.44204568    -0.79000
O400        O  0.07682943  0.00748421  0.42633487    -0.89200
C401        C  0.00015059  0.00655848  0.46219206     0.84700
O402        O  0.02595060  0.03863873  0.42343093    -0.67500
O403        O  0.88636226  0.99723315  0.44624705    -0.86700
C404        C  0.01952581  0.04764438  0.43130732     0.85500
C405        C  0.08685746  0.00659756  0.43502529     1.07100
H406        H  0.95067001  0.02376504  0.44293966     0.38900
O407        O  0.95844244  0.00924945  0.44272152    -1.09400
O408        O  0.94930817  0.97000540  0.43294344    -0.66000
Ni409      Ni  0.95162836  0.99957137  0.43004589     1.26300
O410        O  0.01342096  0.03777364  0.43907658    -0.66300
O411        O  0.89886889  0.00153301  0.43065379    -0.78600
C412        C  0.96025582  0.00206877  0.41041864     0.84900
O413        O  0.94677071  0.99121626  0.41713220    -0.65700
Ni414      Ni  0.93290385  0.99511518  0.45281277     1.27400
Ni415      Ni  0.01136159  0.00826790  0.44257642     1.26100
H416        H  0.01163017  0.98322928  0.43000609     0.39400
O417        O  0.25349357  0.51644078  0.54056794    -0.80500
O418        O  0.27169162  0.50715859  0.58462868    -0.65200
O419        O  0.26738981  0.49581672  0.55786468    -1.11800
C420        C  0.13738879  0.49827584  0.56380989     1.06400
O421        O  0.23097043  0.48193866  0.58724494    -0.78400
O422        O  0.19061443  0.46207462  0.57387225    -0.66000
Ni423      Ni  0.29512329  0.51200007  0.54887113     1.34900
C424        C  0.20128830  0.45522285  0.56583594     0.85100
O425        O  0.32395391  0.50027611  0.57128026    -0.79000
O426        O  0.33940918  0.50825519  0.55614345    -0.89200
C427        C  0.25445485  0.49506948  0.59034378     0.84700
O428        O  0.28685032  0.53899800  0.55438865    -0.67500
O429        O  0.14547391  0.49584952  0.57257877    -0.86700
C430        C  0.27897843  0.54492700  0.56279022     0.85500
C431        C  0.34776912  0.50336634  0.56468714     1.07100
H432        H  0.21105535  0.51856668  0.57092034     0.38900
O433        O  0.21828808  0.50401008  0.57034973    -1.09400
O434        O  0.21290015  0.46699228  0.55914559    -0.66000
Ni435      Ni  0.21458095  0.49694122  0.55719887     1.26300
O436        O  0.27331295  0.53229829  0.56966423    -0.66300
O437        O  0.16128866  0.49838865  0.55706620    -0.78600
C438        C  0.23117000  0.50225707  0.53780029     0.84900
O439        O  0.21412308  0.49084121  0.54381971    -0.65700
Ni440      Ni  0.18923011  0.48928287  0.57950485     1.27400
Ni441      Ni  0.27098685  0.50219871  0.57112427     1.26100
H442        H  0.27529945  0.48143197  0.55704984     0.39400
O443        O  0.75718231  0.51694578  0.54128231    -0.80500
O444        O  0.76789586  0.51021479  0.58563068    -0.65200
O445        O  0.76887910  0.49718604  0.55897620    -1.11800
C446        C  0.63794196  0.49744472  0.56326942     1.06400
O447        O  0.72794529  0.48450491  0.58819447    -0.78400
O448        O  0.69157234  0.46270766  0.57450549    -0.66000
Ni449      Ni  0.79739585  0.51324831  0.55010526     1.34900
C450        C  0.70336824  0.45558948  0.56661321     0.85100
O451        O  0.82290070  0.50338852  0.57301154    -0.79000
O452        O  0.84028401  0.51034527  0.55791541    -0.89200
C453        C  0.75064514  0.49808045  0.59132785     0.84700
O454        O  0.78801385  0.54047939  0.55523098    -0.67500
O455        O  0.64465304  0.49542014  0.57214090    -0.86700
C456        C  0.77884255  0.54687870  0.56347092     0.85500
C457        C  0.84757704  0.50633033  0.56661344     1.07100
H458        H  0.70917128  0.51963337  0.57108830     0.38900
O459        O  0.71724913  0.50518360  0.57076253    -1.09400
O460        O  0.71538074  0.46727239  0.55989878    -0.66000
Ni461      Ni  0.71626122  0.49732236  0.55764159     1.26300
O462        O  0.77139520  0.53458212  0.57037668    -0.66300
O463        O  0.66300903  0.49793345  0.55681979    -0.78600
C464        C  0.73584076  0.50243838  0.53835701     0.84900
O465        O  0.71861533  0.49078482  0.54427260    -0.65700
Ni466      Ni  0.68742930  0.49032236  0.57972839     1.27400
Ni467      Ni  0.76985339  0.50445296  0.57218889     1.26100
H468        H  0.77760057  0.48288765  0.55844866     0.39400
O469        O  0.37392883  0.51164169  0.70743900    -0.80500
O470        O  0.32685332  0.49981571  0.66598627    -0.65200
O471        O  0.34959815  0.48869591  0.69210240    -1.11800
C472        C  0.47460773  0.49192658  0.68034256     1.06400
O473        O  0.36444616  0.47370087  0.66247289    -0.78400
O474        O  0.41493626  0.45436214  0.67364023    -0.66000
Ni475      Ni  0.32706577  0.50359223  0.70223955     1.34900
C476        C  0.41116515  0.44810109  0.68218237     0.85100
O477        O  0.28280664  0.49348178  0.68167840    -0.79000
O478        O  0.27887281  0.49610843  0.69769087    -0.89200
C479        C  0.34108917  0.48742639  0.65987122     0.84700
O480        O  0.32412315  0.53051730  0.69635767    -0.67500
O481        O  0.46014464  0.48855660  0.67219396    -0.86700
C482        C  0.32893714  0.53742924  0.68795602     0.85500
C483        C  0.26423257  0.49345406  0.68952062     1.07100
H484        H  0.39594363  0.51127407  0.67653842     0.38900
O485        O  0.38929194  0.49677157  0.67767837    -1.09400
O486        O  0.40450022  0.46044821  0.68909280    -0.66000
Ni487      Ni  0.40260216  0.49063824  0.69048754     1.26300
O488        O  0.33493484  0.52544270  0.68085900    -0.66300
O489        O  0.45583500  0.49265550  0.68813747    -0.78600
C490        C  0.39777347  0.49816531  0.70998007     0.84900
O491        O  0.41223396  0.48608878  0.70379845    -0.65700
Ni492      Ni  0.41169491  0.48132378  0.66765495     1.27400
Ni493      Ni  0.33619959  0.49517302  0.67931274     1.26100
H494        H  0.34316508  0.47412490  0.69313335     0.39400
O495        O  0.87463868  0.51326121  0.70820839    -0.80500
O496        O  0.82522871  0.50259349  0.66696922    -0.65200
O497        O  0.85005547  0.49058783  0.69286282    -1.11800
C498        C  0.97426019  0.49548075  0.68061423     1.06400
O499        O  0.86353527  0.47712534  0.66302495    -0.78400
O500        O  0.91509088  0.45762037  0.67387477    -0.66000
Ni501      Ni  0.82766349  0.50475649  0.70322948     1.34900
C502        C  0.91185864  0.45107966  0.68239142     0.85100
O503        O  0.78245594  0.49502582  0.68280726    -0.79000
O504        O  0.77944447  0.49677321  0.69886182    -0.89200
C505        C  0.83982895  0.49086126  0.66064544     0.84700
O506        O  0.82283030  0.53189304  0.69762624    -0.67500
O507        O  0.95940975  0.49227327  0.67250351    -0.86700
C508        C  0.82699121  0.53917200  0.68926711     0.85500
C509        C  0.76436300  0.49440643  0.69072354     1.07100
H510        H  0.89465620  0.51426924  0.67728828     0.38900
O511        O  0.88857220  0.49966434  0.67834013    -1.09400
O512        O  0.90544064  0.46314108  0.68940774    -0.66000
Ni513      Ni  0.90288305  0.49318954  0.69103538     1.26300
O514        O  0.83350670  0.52756264  0.68207007    -0.66300
O515        O  0.95592707  0.49577590  0.68848449    -0.78600
C516        C  0.89912600  0.49998209  0.71055453     0.84900
O517        O  0.91350269  0.48822151  0.70424415    -0.65700
Ni518      Ni  0.91088674  0.48481813  0.66810422     1.27400
Ni519      Ni  0.83562247  0.49741191  0.68020637     1.26100
H520        H  0.84416941  0.47591853  0.69379191     0.39400
O521        O  0.04173000  0.23536672  0.71248105    -0.80500
O522        O  0.06413839  0.23799753  0.66856917    -0.65200
O523        O  0.05803279  0.25322918  0.69469676    -1.11800
C524        C  0.92833719  0.25057359  0.68844106     1.06400
O525        O  0.02387969  0.26270163  0.66469568    -0.78400
O526        O  0.98226749  0.28487795  0.67733811    -0.66000
Ni527      Ni  0.08415474  0.23780677  0.70419078     1.34900
C528        C  0.99236178  0.29308654  0.68515215     0.85100
O529        O  0.11529786  0.24644804  0.68166382    -0.79000
O530        O  0.12931194  0.23929997  0.69692716    -0.89200
C531        C  0.04912024  0.24970404  0.66240289     0.84700
O532        O  0.07425362  0.21023054  0.69955041    -0.67500
O533        O  0.93680720  0.25131820  0.67960920    -0.86700
C534        C  0.06847281  0.20314020  0.69124030     0.85500
C535        C  0.13851021  0.24304568  0.68829701     1.07100
H536        H  0.00223570  0.22884883  0.68223909     0.38900
O537        O  0.00966844  0.24343919  0.68231783    -1.09400
O538        O  0.00428711  0.28241730  0.69216923    -0.66000
Ni539      Ni  0.00517778  0.25272398  0.69511884     1.26300
O540        O  0.06462220  0.21491889  0.68399162    -0.66300
O541        O  0.95198801  0.25164456  0.69515698    -0.78600
C542        C  0.01844568  0.24961944  0.71456827     0.84900
O543        O  0.00361782  0.26080891  0.70816587    -0.65700
Ni544      Ni  0.98142173  0.25672496  0.67261422     1.27400
Ni545      Ni  0.06240975  0.24485260  0.68173674     1.26100
H546        H  0.06647050  0.26761448  0.69513594     0.39400
O547        O  0.54450108  0.23578287  0.71227325    -0.80500
O548        O  0.56414755  0.23588427  0.66778535    -0.65200
O549        O  0.55759920  0.25199327  0.69387960    -1.11800
C550        C  0.42811658  0.24545357  0.68812512     1.06400
O551        O  0.52071179  0.25850649  0.66351697    -0.78400
O552        O  0.47930743  0.28081026  0.67630889    -0.66000
Ni553      Ni  0.58521542  0.23734620  0.70337844     1.34900
C554        C  0.48921293  0.28951690  0.68403555     0.85100
O555        O  0.61462146  0.24673865  0.68067228    -0.79000
O556        O  0.62945665  0.23827412  0.69571531    -0.89200
C557        C  0.54771878  0.24648272  0.66143521     0.84700
O558        O  0.57365222  0.20958106  0.69919949    -0.67500
O559        O  0.43589369  0.24638169  0.67925863    -0.86700
C560        C  0.56957369  0.20201376  0.69090369     0.85500
C561        C  0.63821924  0.24317939  0.68718009     1.07100
H562        H  0.50359323  0.22537913  0.68175803     0.38900
O563        O  0.50963019  0.24017462  0.68168830    -1.09400
O564        O  0.50147558  0.27936161  0.69116153    -0.66000
Ni565      Ni  0.50494037  0.24996591  0.69445984     1.26300
O566        O  0.56743320  0.21343599  0.68346921    -0.66300
O567        O  0.45206264  0.24727006  0.69472069    -0.78600
C568        C  0.51988834  0.24951052  0.71405079     0.84900
O569        O  0.50308773  0.25901140  0.70741219    -0.65700
Ni570      Ni  0.47960500  0.25227827  0.67194204     1.27400
Ni571      Ni  0.56212093  0.24324398  0.68093379     1.26100
H572        H  0.56489122  0.26659268  0.69422559     0.39400
O573        O  0.08672154  0.23865126  0.53863312    -0.80500
O574        O  0.06976065  0.24206359  0.58288421    -0.65200
O575        O  0.07366497  0.25616184  0.55661743    -1.11800
C576        C  0.20403637  0.25276496  0.56154340     1.06400
O577        O  0.11346556  0.26498901  0.58673002    -0.78400
O578        O  0.15102987  0.28737342  0.57334835    -0.66000
Ni579      Ni  0.04627219  0.24024541  0.54755056     1.34900
C580        C  0.13980240  0.29528697  0.56557046     0.85100
O581        O  0.01795232  0.25127214  0.57015204    -0.79000
O582        O  0.00258501  0.24087676  0.55539850    -0.89200
C583        C  0.08634336  0.25316785  0.58899189     0.84700
O584        O  0.05964676  0.21327664  0.55221633    -0.67500
O585        O  0.19703535  0.25408534  0.57043684    -0.86700
C586        C  0.06400206  0.20649575  0.56063705     0.85500
C587        C  0.99411892  0.24641192  0.56386455     1.07100
H588        H  0.12979323  0.23122039  0.56879091     0.38900
O589        O  0.12322950  0.24593232  0.56868179    -1.09400
O590        O  0.12817369  0.28444190  0.55862221    -0.66000
Ni591      Ni  0.12628431  0.25499115  0.55574443     1.26300
O592        O  0.06600929  0.21851746  0.56783328    -0.66300
O593        O  0.17927894  0.25343062  0.55511314    -0.78600
C594        C  0.10915527  0.25327107  0.53641953     0.84900
O595        O  0.12626006  0.26350229  0.54275046    -0.65700
Ni596      Ni  0.15374183  0.25920127  0.57802750     1.27400
Ni597      Ni  0.07060843  0.24847215  0.56969132     1.26100
H598        H  0.06554905  0.27056805  0.55603942     0.39400
O599        O  0.59179764  0.23702372  0.53694916    -0.80500
O600        O  0.56713020  0.23943026  0.58077441    -0.65200
O601        O  0.57522306  0.25502798  0.55465218    -1.11800
C602        C  0.70436954  0.25198221  0.56132345     1.06400
O603        O  0.60813696  0.26334368  0.58521336    -0.78400
O604        O  0.64798781  0.28665689  0.57245276    -0.66000
Ni605      Ni  0.54903613  0.23975132  0.54507891     1.34900
C606        C  0.63935594  0.29469676  0.56446919     0.85100
O607        O  0.51716324  0.24840684  0.56748093    -0.79000
O608        O  0.50345160  0.24155898  0.55217696    -0.89200
C609        C  0.58239657  0.25033884  0.58719925     0.84700
O610        O  0.55826158  0.21211878  0.54975359    -0.67500
O611        O  0.69524743  0.25368593  0.57007670    -0.86700
C612        C  0.56395873  0.20501813  0.55806862     0.85500
C613        C  0.49408220  0.24538332  0.56078220     1.07100
H614        H  0.62992833  0.23037714  0.56741672     0.38900
O615        O  0.62270969  0.24498638  0.56724751    -1.09400
O616        O  0.62982556  0.28380744  0.55727617    -0.66000
Ni617      Ni  0.62811138  0.25412136  0.55436786     1.26300
O618        O  0.56751527  0.21674682  0.56532338    -0.66300
O619        O  0.68125946  0.25250398  0.55447373    -0.78600
C620        C  0.61479737  0.25141953  0.53480271     0.84900
O621        O  0.63038335  0.26222535  0.54124020    -0.65700
Ni622      Ni  0.65046030  0.25835690  0.57707114     1.27400
Ni623      Ni  0.56996331  0.24659784  0.56761654     1.26100
H624        H  0.56722546  0.26947321  0.55417916     0.39400
O625        O  0.04621408  0.00984646  0.53859116    -0.80500
O626        O  0.06155088  0.00670645  0.58340735    -0.65200
O627        O  0.05550417  0.99327461  0.55703515    -1.11800
C628        C  0.92587500  0.00052826  0.56300940     1.06400
O629        O  0.01733149  0.98411988  0.58723576    -0.78400
O630        O  0.97530792  0.96405373  0.57404447    -0.66000
Ni631      Ni  0.08427086  0.00925122  0.54813662     1.34900
C632        C  0.98479504  0.95590052  0.56615272     0.85100
O633        O  0.11170326  0.99611614  0.57047003    -0.79000
O634        O  0.12699730  0.00986321  0.55632048    -0.89200
C635        C  0.04531676  0.99521661  0.58947791     0.84700
O636        O  0.06772527  0.03577946  0.55260443    -0.67500
O637        O  0.93353100  0.99902967  0.57185007    -0.86700
C638        C  0.06595074  0.04260155  0.56108082     0.85500
C639        C  0.13553866  0.00258011  0.56448246     1.07100
H640        H  0.00227222  0.01941617  0.56970257     0.38900
O641        O  0.00754437  0.00454425  0.56946729    -1.09400
O642        O  0.99783887  0.96645436  0.55919718    -0.66000
Ni643      Ni  0.00281877  0.99611907  0.55651082     1.26300
O644        O  0.06684342  0.03054349  0.56831834    -0.66300
O645        O  0.94996801  0.99933600  0.55636497    -0.78600
C646        C  0.01832805  0.99828716  0.53682454     0.84900
O647        O  0.00059479  0.98871772  0.54334136    -0.65700
Ni648      Ni  0.97679973  0.99196161  0.57900319     1.27400
Ni649      Ni  0.05966717  0.00057860  0.57017992     1.26100
H650        H  0.06230150  0.97868594  0.55630071     0.39400
O651        O  0.54122783  0.00999749  0.53834968    -0.80500
O652        O  0.56139939  0.00595634  0.58267038    -0.65200
O653        O  0.55429504  0.99165286  0.55635604    -1.11800
C654        C  0.42505213  0.99596781  0.56297199     1.06400
O655        O  0.52005795  0.98177839  0.58668816    -0.78400
O656        O  0.47944303  0.96012985  0.57361920    -0.66000
Ni657      Ni  0.58226964  0.00659322  0.54694265     1.34900
C658        C  0.48761531  0.95258023  0.56550579     0.85100
O659        O  0.61181235  0.99704154  0.56948614    -0.79000
O660        O  0.62682495  0.00446907  0.55432189    -0.89200
C661        C  0.54642509  0.99416646  0.58886704     0.84700
O662        O  0.57286722  0.03402882  0.55165594    -0.67500
O663        O  0.43362554  0.99361321  0.57172040    -0.86700
C664        C  0.56691401  0.04122465  0.55994345     0.85500
C665        C  0.63546795  0.00035959  0.56292354     1.07100
H666        H  0.49990721  0.01638456  0.56937043     0.38900
O667        O  0.50663499  0.00171651  0.56900787    -1.09400
O668        O  0.49809501  0.96374776  0.55846582    -0.66000
Ni669      Ni  0.50149261  0.99357600  0.55602155     1.26300
O670        O  0.56274496  0.02955022  0.56724563    -0.66300
O671        O  0.44853373  0.99595149  0.55615915    -0.78600
C672        C  0.51446899  0.99775970  0.53639315     0.84900
O673        O  0.49882438  0.98668394  0.54277232    -0.65700
Ni674      Ni  0.47809449  0.98800079  0.57865191     1.27400
Ni675      Ni  0.55915498  0.99953034  0.56943030     1.26100
H676        H  0.56144823  0.97707650  0.55583096     0.39400
O677        O  0.09387736  0.00788831  0.71215452    -0.80500
O678        O  0.07761857  0.00330053  0.66800743    -0.65200
O679        O  0.08112445  0.98921561  0.69434709    -1.11800
C680        C  0.21126564  0.99233044  0.68888148     1.06400
O681        O  0.11917780  0.97899063  0.66439551    -0.78400
O682        O  0.15786172  0.95712376  0.67772706    -0.66000
Ni683      Ni  0.05301150  0.00451478  0.70353657     1.34900
C684        C  0.14799141  0.94947247  0.68571099     0.85100
O685        O  0.02510699  0.99502288  0.68084494    -0.79000
O686        O  0.00911070  0.00229820  0.69596519    -0.89200
C687        C  0.09304814  0.99128982  0.66200472     0.84700
O688        O  0.06269417  0.03194124  0.69874375    -0.67500
O689        O  0.20367912  0.99051919  0.68005170    -0.86700
C690        C  0.06970861  0.03898142  0.69047090     0.85500
C691        C  0.00100279  0.99836838  0.68731243     1.07100
H692        H  0.13778908  0.01351443  0.68185833     0.38900
O693        O  0.13063025  0.99888943  0.68212692    -1.09400
O694        O  0.13645443  0.96064910  0.69262182    -0.66000
Ni695      Ni  0.13388060  0.99048391  0.69512627     1.26300
O696        O  0.07495259  0.02714170  0.68328894    -0.66300
O697        O  0.18694840  0.99227854  0.69549620    -0.78600
C698        C  0.11774355  0.99423856  0.71453704     0.84900
O699        O  0.13419598  0.98316680  0.70833083    -0.65700
Ni700      Ni  0.16014049  0.98509519  0.67274695     1.27400
Ni701      Ni  0.07801731  0.99706910  0.68126325     1.26100
H702        H  0.07327918  0.97472486  0.69484910     0.39400
O703        O  0.59454715  0.00612298  0.71256863    -0.80500
O704        O  0.57555894  0.00266147  0.66844871    -0.65200
O705        O  0.58182957  0.98777145  0.69467552    -1.11800
C706        C  0.71124757  0.99426300  0.68862640     1.06400
O707        O  0.61850160  0.97950623  0.66438650    -0.78400
O708        O  0.65977201  0.95800535  0.67743131    -0.66000
Ni709      Ni  0.55342307  0.00230041  0.70407108     1.34900
C710        C  0.65049587  0.94979104  0.68535135     0.85100
O711        O  0.52480276  0.99264637  0.68145507    -0.79000
O712        O  0.50918121  0.99934453  0.69665979    -0.89200
C713        C  0.59141344  0.99137570  0.66223127     0.84700
O714        O  0.56143132  0.03013460  0.69945501    -0.67500
O715        O  0.70326678  0.99258318  0.67981021    -0.86700
C716        C  0.56742217  0.03747355  0.69118036     0.85500
C717        C  0.50091617  0.99515428  0.68803996     1.07100
H718        H  0.63592319  0.01369514  0.68213562     0.38900
O719        O  0.62981534  0.99891211  0.68230116    -1.09400
O720        O  0.63858718  0.96040790  0.69240585    -0.66000
Ni721      Ni  0.63448586  0.99005983  0.69522053     1.26300
O722        O  0.57233734  0.02585606  0.68390701    -0.66300
O723        O  0.68743816  0.99295112  0.69534439    -0.78600
C724        C  0.61964012  0.99302363  0.71475690     0.84900
O725        O  0.63613498  0.98232415  0.70840602    -0.65700
Ni726      Ni  0.65962821  0.98622455  0.67265416     1.27400
Ni727      Ni  0.57737286  0.99594861  0.68165611     1.26100
H728        H  0.57487840  0.97312655  0.69512674     0.39400
O729        O  0.34370659  0.73214242  0.54205697    -0.80500
O730        O  0.32192488  0.74560247  0.58441304    -0.65200
O731        O  0.32957699  0.75654519  0.55796614    -1.11800
C732        C  0.45856433  0.75227443  0.56415622     1.06400
O733        O  0.36419450  0.76961870  0.58790100    -0.78400
O734        O  0.40414103  0.78956116  0.57405717    -0.66000
Ni735      Ni  0.30076858  0.74101975  0.54910620     1.34900
C736        C  0.39712299  0.79611184  0.56570090     0.85100
O737        O  0.27171367  0.75315332  0.57102982    -0.79000
O738        O  0.25617953  0.74904611  0.55560127    -0.89200
C739        C  0.33723527  0.75779333  0.59031502     0.84700
O740        O  0.29977407  0.71419421  0.55522064    -0.67500
O741        O  0.45005479  0.75602911  0.57282758    -0.86700
C742        C  0.30994366  0.70799944  0.56338429     0.85500
C743        C  0.24802350  0.75262960  0.56431851     1.07100
H744        H  0.38356184  0.73325925  0.57145148     0.38900
O745        O  0.37708866  0.74788128  0.57066636    -1.09400
O746        O  0.38705846  0.78414124  0.55889912    -0.66000
Ni747      Ni  0.38214173  0.75397417  0.55741760     1.26300
O748        O  0.32119022  0.72039163  0.56982422    -0.66300
O749        O  0.43503007  0.75109897  0.55741381    -0.78600
C750        C  0.36748452  0.74470252  0.53856601     0.84900
O751        O  0.38355619  0.75817183  0.54383342    -0.65700
Ni752      Ni  0.40588190  0.76246505  0.57983023     1.27400
Ni753      Ni  0.32454771  0.75045410  0.57110891     1.26100
H754        H  0.32307079  0.77113782  0.55708090     0.39400
O755        O  0.84484276  0.74013077  0.54156485    -0.80500
O756        O  0.82256357  0.74644421  0.58567217    -0.65200
O757        O  0.82971093  0.75934261  0.55924435    -1.11800
C758        C  0.95902425  0.75644252  0.56569721     1.06400
O759        O  0.86364540  0.77108202  0.58919875    -0.78400
O760        O  0.90541648  0.79188427  0.57611223    -0.66000
Ni761      Ni  0.80262592  0.74390931  0.54990989     1.34900
C762        C  0.89610137  0.79931654  0.56807381     0.85100
O763        O  0.77207518  0.75402134  0.57234328    -0.79000
O764        O  0.75761043  0.74691037  0.55711206    -0.89200
C765        C  0.83733803  0.75883284  0.59161853     0.84700
O766        O  0.81007782  0.71644963  0.55504794    -0.67500
O767        O  0.95059766  0.75817043  0.57450197    -0.86700
C768        C  0.81655472  0.70986618  0.56342297     0.85500
C769        C  0.74868456  0.75101895  0.56571815     1.07100
H770        H  0.88453827  0.73557626  0.57230522     0.38900
O771        O  0.87751089  0.75019526  0.57189643    -1.09400
O772        O  0.88455466  0.78802624  0.56122612    -0.66000
Ni773      Ni  0.88245005  0.75813919  0.55890189     1.26300
O774        O  0.82216885  0.72197895  0.57048130    -0.66300
O775        O  0.93542715  0.75654022  0.55896367    -0.78600
C776        C  0.86948120  0.75367830  0.53938916     0.84900
O777        O  0.88464070  0.76499234  0.54569897    -0.65700
Ni778      Ni  0.90594854  0.76420973  0.58137394     1.27400
Ni779      Ni  0.82486955  0.75204624  0.57235014     1.26100
H780        H  0.82204656  0.77381267  0.55859655     0.39400
O781        O  0.28439669  0.73358073  0.71275093    -0.80500
O782        O  0.30741191  0.73980980  0.66868225    -0.65200
O783        O  0.30072791  0.75186353  0.69513246    -1.11800
C784        C  0.17110527  0.74738595  0.68882101     1.06400
O785        O  0.26511167  0.76390340  0.66543311    -0.78400
O786        O  0.22010875  0.78323956  0.67833962    -0.66000
Ni787      Ni  0.32639578  0.73523668  0.70425516     1.34900
C788        C  0.23197827  0.79149033  0.68597861     0.85100
O789        O  0.35803964  0.74759675  0.68205957    -0.79000
O790        O  0.37134502  0.73617235  0.69682524    -0.89200
C791        C  0.29199107  0.75225077  0.66287506     0.84700
O792        O  0.31365479  0.70838450  0.69916053    -0.67500
O793        O  0.17944584  0.74756779  0.67997266    -0.86700
C794        C  0.31111258  0.70211751  0.69059782     0.85500
C795        C  0.38097259  0.74226155  0.68849746     1.07100
H796        H  0.24625458  0.72761852  0.68246188     0.38900
O797        O  0.25272876  0.74235083  0.68262919    -1.09400
O798        O  0.24692195  0.78089775  0.69261844    -0.66000
Ni799      Ni  0.24791738  0.75118351  0.69548824     1.26300
O800        O  0.30979713  0.71470099  0.68355032    -0.66300
O801        O  0.19467424  0.74988864  0.69548676    -0.78600
C802        C  0.26254913  0.74849683  0.71494881     0.84900
O803        O  0.24643214  0.75917784  0.70856692    -0.65700
Ni804      Ni  0.22325395  0.75546105  0.67312567     1.27400
Ni805      Ni  0.30535468  0.74488853  0.68202516     1.26100
H806        H  0.30913924  0.76617996  0.69593298     0.39400
O807        O  0.78660854  0.73511740  0.71405452    -0.80500
O808        O  0.80699464  0.74022436  0.66978592    -0.65200
O809        O  0.80095812  0.75304505  0.69620119    -1.11800
C810        C  0.67116378  0.74740063  0.69033305     1.06400
O811        O  0.76360000  0.76351702  0.66637747    -0.78400
O812        O  0.71996785  0.78309447  0.67928605    -0.66000
Ni813      Ni  0.82781310  0.73691390  0.70529263     1.34900
C814        C  0.73171939  0.79173877  0.68684210     0.85100
O815        O  0.85763429  0.74919836  0.68291631    -0.79000
O816        O  0.87224853  0.73797824  0.69761715    -0.89200
C817        C  0.79136760  0.75246588  0.66393495     0.84700
O818        O  0.81515177  0.70980061  0.70045565    -0.67500
O819        O  0.67934687  0.74749025  0.68147833    -0.86700
C820        C  0.81238296  0.70330160  0.69193670     0.85500
C821        C  0.88113975  0.74405794  0.68923013     1.07100
H822        H  0.74678152  0.72782239  0.68383678     0.38900
O823        O  0.75274668  0.74262547  0.68389978    -1.09400
O824        O  0.74606722  0.78145274  0.69368134    -0.66000
Ni825      Ni  0.74818545  0.75179613  0.69674816     1.26300
O826        O  0.81092978  0.71568728  0.68481831    -0.66300
O827        O  0.69490067  0.74997184  0.69695463    -0.78600
C828        C  0.76352708  0.74945953  0.71621670     0.84900
O829        O  0.74708284  0.75998756  0.70982460    -0.65700
Ni830      Ni  0.72258667  0.75513189  0.67437217     1.27400
Ni831      Ni  0.80520037  0.74576032  0.68310762     1.26100
H832        H  0.80891189  0.76747138  0.69689929     0.39400
O833        O  0.52204529  0.52225916  0.91002666    -0.80500
O834        O  0.54137097  0.50741103  0.95357058    -0.65200
O835        O  0.53397148  0.49869517  0.92669795    -1.11800
C836        C  0.40515473  0.50439493  0.93312912     1.06400
O837        O  0.49814604  0.48360787  0.95650737    -0.78400
O838        O  0.45907896  0.46490570  0.94228534    -0.66000
Ni839      Ni  0.56345652  0.51445808  0.91788466     1.34900
C840        C  0.46563637  0.45946985  0.93373445     0.85100
O841        O  0.59195195  0.50002586  0.93990299    -0.79000
O842        O  0.60755831  0.50763613  0.92473818    -0.89200
C843        C  0.52376665  0.49576381  0.95939015     0.84700
O844        O  0.56094352  0.54113130  0.92406303    -0.67500
O845        O  0.41315158  0.49885888  0.94161716    -0.86700
C846        C  0.55392671  0.54661720  0.93257560     0.85500
C847        C  0.61577678  0.50250352  0.93325895     1.07100
H848        H  0.48101299  0.52178878  0.94080177     0.38900
O849        O  0.48675323  0.50717038  0.93968273    -1.09400
O850        O  0.47496598  0.47237279  0.92723649    -0.66000
Ni851      Ni  0.48149231  0.50236052  0.92633070     1.26300
O852        O  0.54497890  0.53370756  0.93911598    -0.66300
O853        O  0.42897471  0.50644607  0.92646519    -0.78600
C854        C  0.49710736  0.50984180  0.90705213     0.84900
O855        O  0.47914615  0.49830043  0.91282521    -0.65700
Ni856      Ni  0.45704245  0.49159090  0.94850713     1.27400
Ni857      Ni  0.53920478  0.50361031  0.94004465     1.26100
H858        H  0.53967093  0.48407553  0.92557049     0.39400
O859        O  0.02324531  0.52444519  0.90993914    -0.80500
O860        O  0.03767027  0.51821753  0.95407364    -0.65200
O861        O  0.03597628  0.50479205  0.92756428    -1.11800
C862        C  0.90567796  0.50458756  0.93269790     1.06400
O863        O  0.99846045  0.49240247  0.95712501    -0.78400
O864        O  0.96285220  0.47023629  0.94361101    -0.66000
Ni865      Ni  0.06433378  0.52017563  0.91845358     1.34900
C866        C  0.97353126  0.46350219  0.93555314     0.85100
O867        O  0.09124235  0.51108399  0.94121898    -0.79000
O868        O  0.10805314  0.51678277  0.92597280    -0.89200
C869        C  0.02178560  0.50598572  0.95995686     0.84700
O870        O  0.05684089  0.54752956  0.92357641    -0.67500
O871        O  0.91318294  0.50198338  0.94149783    -0.86700
C872        C  0.04782731  0.55420831  0.93177822     0.85500
C873        C  0.11565029  0.51339472  0.93471298     1.07100
H874        H  0.97744040  0.52739547  0.94018037     0.38900
O875        O  0.98557139  0.51297567  0.93971694    -1.09400
O876        O  0.98277858  0.47543089  0.92868721    -0.66000
Ni877      Ni  0.98326993  0.50532800  0.92659868     1.26300
O878        O  0.03972328  0.54222270  0.93874022    -0.66300
O879        O  0.93015015  0.50600712  0.92614628    -0.78600
C880        C  0.00005318  0.51063893  0.90727130     0.84900
O881        O  0.98374873  0.49887640  0.91328138    -0.65700
Ni882      Ni  0.95704951  0.49766663  0.94884503     1.27400
Ni883      Ni  0.03823156  0.51219781  0.94071391     1.26100
H884        H  0.04433590  0.49041797  0.92706472     0.39400
O885        O  0.38792250  0.52146683  0.83439681    -0.80500
O886        O  0.37207635  0.51597705  0.79096164    -0.65200
O887        O  0.37602212  0.50059922  0.81723249    -1.11800
C888        C  0.50536630  0.50179711  0.81155827     1.06400
O889        O  0.41033449  0.49002711  0.78754578    -0.78400
O890        O  0.44386329  0.46663120  0.80100420    -0.66000
Ni891      Ni  0.34636404  0.51408862  0.82658412     1.34900
C892        C  0.43675396  0.46035630  0.80940015     0.85100
O893        O  0.31898347  0.50751361  0.80402398    -0.79000
O894        O  0.30287759  0.50731796  0.81954903    -0.89200
C895        C  0.38841985  0.50446911  0.78487524     0.84700
O896        O  0.34638932  0.54180073  0.82137713    -0.67500
O897        O  0.49669621  0.49709382  0.80301729    -0.86700
C898        C  0.35799797  0.54967612  0.81360524     0.85500
C899        C  0.29494680  0.50628018  0.81071234     1.07100
H900        H  0.43328404  0.52421180  0.80421770     0.38900
O901        O  0.42513506  0.50981553  0.80490924    -1.09400
O902        O  0.43154337  0.47269631  0.81637440    -0.66000
Ni903      Ni  0.42875270  0.50267310  0.81807381     1.26300
O904        O  0.37091076  0.53872262  0.80678469    -0.66300
O905        O  0.48176951  0.50484712  0.81821107    -0.78600
C906        C  0.41171007  0.50836812  0.83734814     0.84900
O907        O  0.42942543  0.49690089  0.83150239    -0.65700
Ni908      Ni  0.45230293  0.49390496  0.79576225     1.27400
Ni909      Ni  0.37233527  0.50888781  0.80423604     1.26100
H910        H  0.36905790  0.48594710  0.81750594     0.39400
O911        O  0.88294476  0.51758231  0.83543363    -0.80500
O912        O  0.87529764  0.51700828  0.79152546    -0.65200
O913        O  0.87431529  0.49914684  0.81748142    -1.11800
C914        C  0.00465329  0.49997123  0.81308445     1.06400
O915        O  0.91282983  0.49081821  0.78804629    -0.78400
O916        O  0.94484901  0.46633753  0.80131728    -0.66000
Ni917      Ni  0.84321410  0.51203045  0.82672021     1.34900
C918        C  0.93585708  0.45922246  0.80945124     0.85100
O919        O  0.82012037  0.50772380  0.80362342    -0.79000
O920        O  0.80093562  0.50726516  0.81889070    -0.89200
C921        C  0.89145445  0.50554299  0.78541541     0.84700
O922        O  0.84641296  0.54024422  0.82223366    -0.67500
O923        O  0.99707743  0.49659800  0.80434642    -0.86700
C924        C  0.85880941  0.54866494  0.81466171     0.85500
C925        C  0.79474941  0.50694088  0.80995306     1.07100
H926        H  0.93416672  0.52350878  0.80560395     0.38900
O927        O  0.92564178  0.50911766  0.80589516    -1.09400
O928        O  0.92912606  0.47082026  0.81660235    -0.66000
Ni929      Ni  0.92698343  0.50061253  0.81891917     1.26300
O930        O  0.87170404  0.53821274  0.80768162    -0.66300
O931        O  0.98016040  0.50212920  0.81961268    -0.78600
C932        C  0.90720077  0.50454236  0.83819479     0.84900
O933        O  0.92546398  0.49360468  0.83223801    -0.65700
Ni934      Ni  0.95375835  0.49404457  0.79666441     1.27400
Ni935      Ni  0.87315283  0.50865688  0.80459898     1.26100
H936        H  0.86691224  0.48455321  0.81738998     0.39400
O937        O  0.14355475  0.74613393  0.91513279    -0.80500
O938        O  0.11346513  0.74365685  0.95905827    -0.65200
O939        O  0.12833591  0.76292651  0.93344579    -1.11800
C940        C  0.25523710  0.75159401  0.94103788     1.06400
O941        O  0.15729270  0.76514352  0.96389508    -0.78400
O942        O  0.20224926  0.78710854  0.95262362    -0.66000
Ni943      Ni  0.10059039  0.75164242  0.92306579     1.34900
C944        C  0.19648277  0.79673152  0.94487113     0.85100
O945        O  0.06693447  0.75778587  0.94551555    -0.79000
O946        O  0.05497916  0.75661854  0.92978551    -0.89200
C947        C  0.13138661  0.75229720  0.96576600     0.84700
O948        O  0.10033536  0.72288742  0.92698076    -0.67500
O949        O  0.24556078  0.75253720  0.94978270    -0.86700
C950        C  0.10506813  0.71402324  0.93499294     0.85500
C951        C  0.04478212  0.75860456  0.93846033     1.07100
H952        H  0.17613603  0.73322234  0.94592062     0.38900
O953        O  0.17161316  0.74818078  0.94608291    -1.09400
O954        O  0.18769921  0.78754166  0.93714683    -0.66000
Ni955      Ni  0.18061063  0.75846777  0.93356707     1.26300
O956        O  0.11235579  0.72392847  0.94260517    -0.66300
O957        O  0.23285321  0.75360814  0.93410264    -0.78600
C958        C  0.17279441  0.75708516  0.91393190     0.84900
O959        O  0.18700625  0.76738605  0.92071678    -0.65700
Ni960      Ni  0.20022549  0.75850009  0.95642181     1.27400
Ni961      Ni  0.11931101  0.75287392  0.94608469     1.26100
H962        H  0.12355361  0.77786088  0.93346022     0.39400
O963        O  0.63480329  0.73886121  0.91493261    -0.80500
O964        O  0.62574007  0.73923104  0.95859789    -0.65200
O965        O  0.62460088  0.75753743  0.93283816    -1.11800
C966        C  0.75433809  0.76068482  0.93666099     1.06400
O967        O  0.66428753  0.76462843  0.96289128    -0.78400
O968        O  0.68853587  0.79157730  0.94921237    -0.66000
Ni969      Ni  0.59438507  0.74390508  0.92360638     1.34900
C970        C  0.68165712  0.79845796  0.94091189     0.85100
O971        O  0.57057638  0.74781532  0.94660421    -0.79000
O972        O  0.55151177  0.74831925  0.93136957    -0.89200
C973        C  0.64148132  0.75002227  0.96498212     0.84700
O974        O  0.59827119  0.71568614  0.92818208    -0.67500
O975        O  0.74651809  0.76517420  0.94530207    -0.86700
C976        C  0.61174212  0.70764413  0.93568743     0.85500
C977        C  0.54519609  0.74853143  0.94031597     1.07100
H978        H  0.68582209  0.73424938  0.94475675     0.38900
O979        O  0.67640467  0.74843173  0.94441953    -1.09400
O980        O  0.67861671  0.78668695  0.93365018    -0.66000
Ni981      Ni  0.67718900  0.75682499  0.93137399     1.26300
O982        O  0.62441463  0.71846192  0.94254007    -0.66300
O983        O  0.73006671  0.75591813  0.93045914    -0.78600
C984        C  0.65820932  0.75252886  0.91219787     0.84900
O985        O  0.67533746  0.76389019  0.91816018    -0.65700
Ni986      Ni  0.70367559  0.76449510  0.95350123     1.27400
Ni987      Ni  0.62376595  0.74792553  0.94566154     1.26100
H988        H  0.61657030  0.77201164  0.93292719     0.39400
O989        O  0.26896790  0.74045028  0.84001820    -0.80500
O990        O  0.29549136  0.74605859  0.79567294    -0.65200
O991        O  0.28522497  0.75930441  0.82210934    -1.11800
C992        C  0.15667661  0.75544628  0.81464190     1.06400
O993        O  0.25486391  0.77051519  0.79200289    -0.78400
O994        O  0.21307988  0.79160061  0.80461157    -0.66000
Ni995      Ni  0.31144393  0.74398484  0.83167911     1.34900
C996        C  0.22191998  0.79879694  0.81271687     0.85100
O997        O  0.34461472  0.75480894  0.80943113    -0.79000
O998        O  0.35700333  0.74685914  0.82470622    -0.89200
C999        C  0.27876306  0.75700108  0.78948240     0.84700
O1000       O  0.30383664  0.71649884  0.82653712    -0.67500
O1001       O  0.16596839  0.75809177  0.80594317    -0.86700
C1002       C  0.29928023  0.71006972  0.81804888     0.85500
C1003       C  0.36710033  0.75158197  0.81625090     1.07100
H1004       H  0.23244682  0.73510307  0.80852380     0.38900
O1005       O  0.23911718  0.74976422  0.80904702    -1.09400
O1006       O  0.23062090  0.78725630  0.81974013    -0.66000
Ni1007     Ni  0.23247686  0.75744739  0.82200998     1.26300
O1008       O  0.29518684  0.72226673  0.81095410    -0.66300
O1009       O  0.17958203  0.75527875  0.82152597    -0.78600
C1010       C  0.24216931  0.75294619  0.84167128     0.84900
O1011       O  0.22809780  0.76411252  0.83515657    -0.65700
Ni1012     Ni  0.21152975  0.76395585  0.79941158     1.27400
Ni1013     Ni  0.29183868  0.75217776  0.80899375     1.26100
H1014       H  0.29250907  0.77382978  0.82283973     0.39400
O1015       O  0.77614563  0.74006872  0.84111183    -0.80500
O1016       O  0.78813737  0.74216337  0.79715563    -0.65200
O1017       O  0.78783672  0.75854655  0.82323103    -1.11800
C1018       C  0.65720005  0.75705292  0.81885125     1.06400
O1019       O  0.74827734  0.76717103  0.79357092    -0.78400
O1020       O  0.71291901  0.79072575  0.80679820    -0.66000
Ni1021     Ni  0.81700159  0.74398119  0.83241171     1.34900
C1022       C  0.72348539  0.79851121  0.81465288     0.85100
O1023       O  0.84224178  0.75106113  0.80942759    -0.79000
O1024       O  0.86048689  0.74715339  0.82464289    -0.89200
C1025       C  0.77149898  0.75325756  0.79102733     0.84700
O1026       O  0.81030335  0.71596352  0.82783823    -0.67500
O1027       O  0.66437014  0.75885980  0.80997827    -0.86700
C1028       C  0.80028536  0.70865810  0.81984033     0.85500
C1029       C  0.86724508  0.74956906  0.81577226     1.07100
H1030       H  0.72887652  0.73429635  0.81150571     0.38900
O1031       O  0.73680577  0.74880281  0.81158095    -1.09400
O1032       O  0.73360318  0.78748971  0.82174153    -0.66000
Ni1033     Ni  0.73512432  0.75778806  0.82451231     1.26300
O1034       O  0.79107488  0.72011184  0.81283371    -0.66300
O1035       O  0.68194851  0.75665902  0.82531925    -0.78600
C1036       C  0.75297659  0.75394522  0.84372386     0.84900
O1037       O  0.73646598  0.76541372  0.83767623    -0.65700
Ni1038     Ni  0.70753059  0.76269101  0.80225417     1.27400
Ni1039     Ni  0.78934633  0.74980645  0.81027634     1.26100
H1040       H  0.79602143  0.77300407  0.82340163     0.39400
O1041       O  0.37915265  0.23946442  0.91291725    -0.80500
O1042       O  0.36061013  0.24026673  0.95603118    -0.65200
O1043       O  0.36504735  0.25910591  0.93029106    -1.11800
C1044       C  0.49345672  0.26215896  0.93542748     1.06400
O1045       O  0.40110785  0.26397974  0.96101858    -0.78400
O1046       O  0.42195442  0.29165365  0.94767204    -0.66000
Ni1047     Ni  0.33667883  0.24525816  0.92072239     1.34900
C1048       C  0.41912478  0.29927192  0.93937020     0.85100
O1049       O  0.30810680  0.24983104  0.94326620    -0.79000
O1050       O  0.29232301  0.25040618  0.92775663    -0.89200
C1051       C  0.37732348  0.24970768  0.96269191     0.84700
O1052       O  0.33812351  0.21705712  0.92544607    -0.67500
O1053       O  0.48361894  0.26756213  0.94380368    -0.86700
C1054       C  0.35012035  0.20908150  0.93312134     0.85500
C1055       C  0.28414958  0.25087660  0.93660191     1.07100
H1056       H  0.42355566  0.23505388  0.94282756     0.38900
O1057       O  0.41450073  0.24930266  0.94241521    -1.09400
O1058       O  0.42048847  0.28811665  0.93182960    -0.66000
Ni1059     Ni  0.41781969  0.25805684  0.92937989     1.26300
O1060       O  0.36206709  0.21996049  0.94001350    -0.66300
O1061       O  0.47067868  0.25646993  0.92902550    -0.78600
C1062       C  0.40166291  0.25350113  0.91011379     0.84900
O1063       O  0.41809438  0.26519442  0.91609535    -0.65700
Ni1064     Ni  0.44036425  0.26524683  0.95175255     1.27400
Ni1065     Ni  0.36153284  0.24936148  0.94307514     1.26100
H1066       H  0.35729791  0.27363243  0.93025045     0.39400
O1067       O  0.87390129  0.23835422  0.91415726    -0.80500
O1068       O  0.86228770  0.25142909  0.95805658    -0.65200
O1069       O  0.86351806  0.26091742  0.93109770    -1.11800
C1070       C  0.99404581  0.25753740  0.93595906     1.06400
O1071       O  0.90160983  0.27776758  0.95912535    -0.78400
O1072       O  0.94277511  0.29553131  0.94537078    -0.66000
Ni1073     Ni  0.83338383  0.24547709  0.92252305     1.34900
C1074       C  0.93135464  0.30146089  0.93727972     0.85100
O1075       O  0.80787334  0.25782519  0.94511454    -0.79000
O1076       O  0.79039155  0.25190125  0.92996395    -0.89200
C1077       C  0.87977580  0.26477819  0.96307351     0.84700
O1078       O  0.83736218  0.21865802  0.92848826    -0.67500
O1079       O  0.98682524  0.26112233  0.94472438    -0.86700
C1080       C  0.84703107  0.21262372  0.93673740     0.85500
C1081       C  0.78319921  0.25628545  0.93864713     1.07100
H1082       H  0.92065270  0.23862950  0.94410073     0.38900
O1083       O  0.91359022  0.25313506  0.94321071    -1.09400
O1084       O  0.91911704  0.28890062  0.93102328    -0.66000
Ni1085     Ni  0.91619346  0.25878755  0.92994705     1.26300
O1086       O  0.85727943  0.22512420  0.94329724    -0.66300
O1087       O  0.96944503  0.25662972  0.92943493    -0.78600
C1088       C  0.89807928  0.25107604  0.91094441     0.84900
O1089       O  0.91576389  0.26319575  0.91648423    -0.65700
Ni1090     Ni  0.94343404  0.26900573  0.95167156     1.27400
Ni1091     Ni  0.86101535  0.25533069  0.94444966     1.26100
H1092       H  0.85646958  0.27543773  0.93024940     0.39400
O1093       O  0.51509748  0.23963869  0.83890889    -0.80500
O1094       O  0.53107591  0.24235386  0.79494404    -0.65200
O1095       O  0.52772703  0.25830915  0.82109154    -1.11800
C1096       C  0.39782412  0.25585141  0.81603225     1.06400
O1097       O  0.49035833  0.26684331  0.79116541    -0.78400
O1098       O  0.45445377  0.29019264  0.80432407    -0.66000
Ni1099     Ni  0.55647479  0.24421573  0.83047485     1.34900
C1100       C  0.46421884  0.29774171  0.81229467     0.85100
O1101       O  0.58379899  0.25167680  0.80762618    -0.79000
O1102       O  0.60026268  0.24812870  0.82299792    -0.89200
C1103       C  0.51469301  0.25343588  0.78875146     0.84700
O1104       O  0.55145073  0.21620594  0.82580666    -0.67500
O1105       O  0.40554010  0.25820800  0.80722057    -0.86700
C1106       C  0.54250903  0.20871262  0.81775833     0.85500
C1107       C  0.60802333  0.25061002  0.81419423     1.07100
H1108       H  0.47070506  0.23355287  0.80888946     0.38900
O1109       O  0.47815655  0.24813216  0.80909802    -1.09400
O1110       O  0.47299527  0.28652165  0.81942347    -0.66000
Ni1111     Ni  0.47506980  0.25684482  0.82207002     1.26300
O1112       O  0.53352053  0.22000674  0.81066461    -0.66300
O1113       O  0.42208206  0.25507187  0.82259457    -0.78600
C1114       C  0.49158989  0.25340867  0.84139858     0.84900
O1115       O  0.47489375  0.26445196  0.83523688    -0.65700
Ni1116     Ni  0.44922950  0.26216591  0.79970208     1.27400
Ni1117     Ni  0.53081353  0.24974374  0.80812204     1.26100
H1118       H  0.53532615  0.27286422  0.82132555     0.39400
O1119       O  0.01380735  0.23816294  0.83887983    -0.80500
O1120       O  0.03161130  0.24090603  0.79548283    -0.65200
O1121       O  0.02697071  0.25787878  0.82143604    -1.11800
C1122       C  0.89759054  0.25550673  0.81592100     1.06400
O1123       O  0.99207313  0.26574525  0.79145866    -0.78400
O1124       O  0.95670755  0.28970833  0.80443211    -0.66000
Ni1125     Ni  0.05579450  0.24415801  0.83090180     1.34900
C1126       C  0.96438295  0.29720971  0.81256203     0.85100
O1127       O  0.08385080  0.25048266  0.80824832    -0.79000
O1128       O  0.09984682  0.24945119  0.82373332    -0.89200
C1129       C  0.01527577  0.25161636  0.78916965     0.84700
O1130       O  0.05372835  0.21612402  0.82611397    -0.67500
O1131       O  0.90598940  0.25857689  0.80719049    -0.86700
C1132       C  0.04305062  0.20834621  0.81827433     0.85500
C1133       C  0.10783609  0.25090079  0.81489677     1.07100
H1134       H  0.97027076  0.23311454  0.80902659     0.38900
O1135       O  0.97803546  0.24763503  0.80931570    -1.09400
O1136       O  0.97143890  0.28591925  0.81981242    -0.66000
Ni1137     Ni  0.97425669  0.25611533  0.82229882     1.26300
O1138       O  0.03221112  0.21934500  0.81128743    -0.66300
O1139       O  0.92131335  0.25403821  0.82259552    -0.78600
C1140       C  0.99021615  0.25165552  0.84158495     0.84900
O1141       O  0.97346393  0.26311648  0.83557292    -0.65700
Ni1142     Ni  0.95022453  0.26185051  0.79981050     1.27400
Ni1143     Ni  0.03073571  0.24892534  0.80855059     1.26100
H1144       H  0.03425408  0.27249031  0.82159994     0.39400
O1145       O  0.25663425  0.02293299  0.91358922    -0.80500
O1146       O  0.28094307  0.01357460  0.95657327    -0.65200
O1147       O  0.27109246  0.99991339  0.93026550    -1.11800
C1148       C  0.14329241  0.00252642  0.93768815     1.06400
O1149       O  0.24298045  0.98746401  0.95997119    -0.78400
O1150       O  0.20550303  0.96558880  0.94682781    -0.66000
Ni1151     Ni  0.29937213  0.01401438  0.92072324     1.34900
C1152       C  0.20931739  0.95993563  0.93821604     0.85100
O1153       O  0.33078436  0.00555357  0.94270746    -0.79000
O1154       O  0.34417893  0.00603552  0.92700853    -0.89200
C1155       C  0.26511592  0.00180796  0.96265787     0.84700
O1156       O  0.30177064  0.04124585  0.92636233    -0.67500
O1157       O  0.15305079  0.99678042  0.94604096    -0.86700
C1158       C  0.29135357  0.04856779  0.93433617     0.85500
C1159       C  0.35354995  0.00446230  0.93574114     1.07100
H1160       H  0.21752521  0.02315319  0.94442202     0.38900
O1161       O  0.22497851  0.00876003  0.94338795    -1.09400
O1162       O  0.21327803  0.97284595  0.93138555    -0.66000
Ni1163     Ni  0.21851839  0.00287608  0.93024996     1.26300
O1164       O  0.27931544  0.03716339  0.94110925    -0.66300
O1165       O  0.16594001  0.00601465  0.93086796    -0.78600
C1166       C  0.22940805  0.01152825  0.91114130     0.84900
O1167       O  0.21477487  0.99853996  0.91688172    -0.65700
Ni1168     Ni  0.19909182  0.99243643  0.95260220     1.27400
Ni1169     Ni  0.27770933  0.00727235  0.94327908     1.26100
H1170       H  0.27715347  0.98518680  0.92968052     0.39400
O1171       O  0.76324793  0.02357636  0.91511811    -0.80500
O1172       O  0.77284375  0.01456159  0.95905496    -0.65200
O1173       O  0.77427486  0.00246303  0.93243262    -1.11800
C1174       C  0.64334139  0.00256177  0.93635950     1.06400
O1175       O  0.73240138  0.98898679  0.96144728    -0.78400
O1176       O  0.69765154  0.96775273  0.94754448    -0.66000
Ni1177     Ni  0.80373671  0.01802894  0.92366947     1.34900
C1178       C  0.70987124  0.96107900  0.93962509     0.85100
O1179       O  0.82817071  0.00798931  0.94650370    -0.79000
O1180       O  0.84658289  0.01328312  0.93132860    -0.89200
C1181       C  0.75561458  0.00221801  0.96464390     0.84700
O1182       O  0.79784950  0.04522150  0.92914658    -0.67500
O1183       O  0.64946103  0.00003259  0.94523625    -0.86700
C1184       C  0.78761158  0.05163251  0.93730018     0.85500
C1185       C  0.85327152  0.00988636  0.94012178     1.07100
H1186       H  0.71457210  0.02477878  0.94466089     0.38900
O1187       O  0.72247914  0.01031972  0.94419166    -1.09400
O1188       O  0.72085566  0.97307746  0.93293520    -0.66000
Ni1189     Ni  0.72179648  0.00312377  0.93102054     1.26300
O1190       O  0.77724494  0.03941320  0.94398078    -0.66300
O1191       O  0.66881414  0.00391744  0.93007119    -0.78600
C1192       C  0.74035492  0.01005684  0.91200844     0.84900
O1193       O  0.72402778  0.99743612  0.91765128    -0.65700
Ni1194     Ni  0.69219712  0.99503424  0.95292351     1.27400
Ni1195     Ni  0.77507134  0.00928078  0.94563519     1.26100
H1196       H  0.78256969  0.98808584  0.93188156     0.39400
O1197       O  0.12583167  0.01744795  0.83926697    -0.80500
O1198       O  0.10309061  0.01266844  0.79523129    -0.65200
O1199       O  0.11104248  0.99860944  0.82154922    -1.11800
C1200       C  0.24012576  0.00305936  0.81474478     1.06400
O1201       O  0.14412376  0.98820783  0.79169438    -0.78400
O1202       O  0.18627739  0.96731129  0.80436844    -0.66000
Ni1203     Ni  0.08356228  0.01298477  0.83114090     1.34900
C1204       C  0.17667096  0.95984640  0.81239004     0.85100
O1205       O  0.05284064  0.00343141  0.80870580    -0.79000
O1206       O  0.03866999  0.00915990  0.82411695    -0.89200
C1207       C  0.11931766  0.00116747  0.78914597     0.84700
O1208       O  0.08925785  0.04067624  0.82618540    -0.67500
O1209       O  0.23149374  0.00121575  0.80597752    -0.86700
C1210       C  0.09550334  0.04775549  0.81787202     0.85500
C1211       C  0.02962379  0.00531662  0.81551301     1.07100
H1212       H  0.16485842  0.02360806  0.80843999     0.38900
O1213       O  0.15827081  0.00891265  0.80883624    -1.09400
O1214       O  0.16612369  0.97106770  0.81933604    -0.66000
Ni1215     Ni  0.16368616  0.00069869  0.82176034     1.26300
O1216       O  0.10174594  0.03613442  0.81068579    -0.66300
O1217       O  0.21665635  0.00290685  0.82155717    -0.78600
C1218       C  0.15086543  0.00412762  0.84126047     0.84900
O1219       O  0.16637157  0.99331754  0.83483870    -0.65700
Ni1220     Ni  0.18675364  0.99511757  0.79925785     1.27400
Ni1221     Ni  0.10562432  0.00630395  0.80851620     1.26100
H1222       H  0.10395271  0.98400810  0.82208632     0.39400
O1223       O  0.61913247  0.01865314  0.83962864    -0.80500
O1224       O  0.60815467  0.01394585  0.79585766    -0.65200
O1225       O  0.61019207  0.99827839  0.82209086    -1.11800
C1226       C  0.74013165  0.00165908  0.81746175     1.06400
O1227       O  0.64978449  0.98982997  0.79221990    -0.78400
O1228       O  0.68278478  0.96660817  0.80586468    -0.66000
Ni1229     Ni  0.57904855  0.01174361  0.83120684     1.34900
C1230       C  0.67500367  0.95949716  0.81408531     0.85100
O1231       O  0.55477422  0.00422184  0.80837259    -0.79000
O1232       O  0.53638929  0.00552256  0.82369458    -0.89200
C1233       C  0.62551068  0.00315645  0.78971453     0.84700
O1234       O  0.58085912  0.03968952  0.82620838    -0.67500
O1235       O  0.73283046  0.99786298  0.80875025    -0.86700
C1236       C  0.59248748  0.04736087  0.81839410     0.85500
C1237       C  0.52979598  0.00368143  0.81481417     1.07100
H1238       H  0.66739503  0.02327190  0.80971567     0.38900
O1239       O  0.66022733  0.00866878  0.81015723    -1.09400
O1240       O  0.66733334  0.97109958  0.82120233    -0.66000
Ni1241     Ni  0.66269748  0.00099999  0.82329643     1.26300
O1242       O  0.60451156  0.03624194  0.81155103    -0.66300
O1243       O  0.71551923  0.00389889  0.82392100    -0.78600
C1244       C  0.64409749  0.00619599  0.84252617     0.84900
O1245       O  0.66221024  0.99484301  0.83670008    -0.65700
Ni1246     Ni  0.68985914  0.99425822  0.80101806     1.27400
Ni1247     Ni  0.60772221  0.00657731  0.80905808     1.26100
H1248       H  0.60372843  0.98355024  0.82234627     0.39400
O1249       O  0.07670221  0.49219366  0.21128686    -0.80500
O1250       O  0.05716134  0.48514459  0.16697372    -0.65200
O1251       O  0.06370132  0.47279385  0.19350944    -1.11800
C1252       C  0.19299250  0.47813832  0.18714999     1.06400
O1253       O  0.09994400  0.46163911  0.16328670    -0.78400
O1254       O  0.14096610  0.44128092  0.17673418    -0.66000
Ni1255     Ni  0.03583102  0.48857895  0.20262936     1.34900
C1256       C  0.13170358  0.43396191  0.18482865     0.85100
O1257       O  0.00643408  0.47665312  0.18024789    -0.79000
O1258       O  0.99162669  0.48606470  0.19519066    -0.89200
C1259       C  0.07353796  0.47374832  0.16088629     0.84700
O1260       O  0.04588454  0.51567780  0.19746843    -0.67500
O1261       O  0.18503839  0.47565419  0.17837460    -0.86700
C1262       C  0.05179210  0.52195120  0.18901338     0.85500
C1263       C  0.98285552  0.48076880  0.18673858     1.07100
H1264       H  0.11790974  0.49722214  0.18033762     0.38900
O1265       O  0.11159794  0.48249748  0.18081428    -1.09400
O1266       O  0.12005160  0.44523960  0.19167649    -0.66000
Ni1267     Ni  0.11637584  0.47503300  0.19390229     1.26300
O1268       O  0.05525333  0.50962637  0.18194987    -0.66300
O1269       O  0.16919714  0.47776355  0.19387900    -0.78600
C1270       C  0.10211190  0.47929391  0.21350500     0.84900
O1271       O  0.11852668  0.46843194  0.20720365    -0.65700
Ni1272     Ni  0.14123144  0.46891261  0.17138150     1.27400
Ni1273     Ni  0.05912871  0.47960034  0.18030460     1.26100
H1274       H  0.05656813  0.45824662  0.19430878     0.39400
O1275       O  0.57462424  0.49165373  0.21208976    -0.80500
O1276       O  0.55772502  0.49081293  0.16766780    -0.65200
O1277       O  0.56268870  0.47492500  0.19381321    -1.11800
C1278       C  0.69253627  0.48048824  0.18825816     1.06400
O1279       O  0.60102975  0.46805889  0.16350210    -0.78400
O1280       O  0.64029692  0.44565068  0.17642019    -0.66000
Ni1281     Ni  0.53435545  0.48967454  0.20316870     1.34900
C1282       C  0.63016175  0.43705436  0.18417876     0.85100
O1283       O  0.50671659  0.48004689  0.18042877    -0.79000
O1284       O  0.49066276  0.48852665  0.19540622    -0.89200
C1285       C  0.57410285  0.48001656  0.16137392     0.84700
O1286       O  0.54543980  0.51741566  0.19887401    -0.67500
O1287       O  0.68490477  0.47949967  0.17940637    -0.86700
C1288       C  0.55017910  0.52477213  0.19054789     0.85500
C1289       C  0.48263995  0.48377510  0.18682792     1.07100
H1290       H  0.61763108  0.50123310  0.18169599     0.38900
O1291       O  0.61145546  0.48645509  0.18168475    -1.09400
O1292       O  0.61860078  0.44735393  0.19135663    -0.66000
Ni1293     Ni  0.61532951  0.47682023  0.19452645     1.26300
O1294       O  0.55371488  0.51321637  0.18321718    -0.66300
O1295       O  0.66833135  0.47921949  0.19487500    -0.78600
C1296       C  0.59924426  0.47808725  0.21407701     0.84900
O1297       O  0.61620612  0.46811685  0.20757308    -0.65700
Ni1298     Ni  0.64159377  0.47407162  0.17201086     1.27400
Ni1299     Ni  0.55907512  0.48346506  0.18082278     1.26100
H1300       H  0.55527776  0.46034387  0.19419536     0.39400
O1301       O  0.04209759  0.50507858  0.03745057    -0.80500
O1302       O  0.06213421  0.49369362  0.08137756    -0.65200
O1303       O  0.05584027  0.48417333  0.05464517    -1.11800
C1304       C  0.92613737  0.48869282  0.06109359     1.06400
O1305       O  0.01949475  0.46949718  0.08429405    -0.78400
O1306       O  0.97676797  0.45098645  0.07078306    -0.66000
Ni1307     Ni  0.08347462  0.50108703  0.04587790     1.34900
C1308       C  0.98725364  0.44395694  0.06274821     0.85100
O1309       O  0.11284168  0.48692057  0.06793733    -0.79000
O1310       O  0.12792261  0.49824209  0.05325855    -0.89200
C1311       C  0.04605931  0.48112539  0.08706109     0.84700
O1312       O  0.07339279  0.52772746  0.05149788    -0.67500
O1313       O  0.93446836  0.48619053  0.06984841    -0.86700
C1314       C  0.06801644  0.53318238  0.06008399     0.85500
C1315       C  0.13652409  0.49204383  0.06161043     1.07100
H1316       H  0.00135709  0.50715319  0.06803241     0.38900
O1317       O  0.00770045  0.49247504  0.06739368    -1.09400
O1318       O  0.00014553  0.45563896  0.05614314    -0.66000
Ni1319     Ni  0.00298605  0.48575321  0.05424404     1.26300
O1320       O  0.06429944  0.52006984  0.06688407    -0.66300
O1321       O  0.94973186  0.48800733  0.05428883    -0.78600
C1322       C  0.01840312  0.49147876  0.03482212     0.84900
O1323       O  0.00154352  0.48002620  0.04086189    -0.65700
Ni1324     Ni  0.97808999  0.47816138  0.07658988     1.27400
Ni1325     Ni  0.06021830  0.48976468  0.06792359     1.26100
H1326       H  0.06338591  0.46980245  0.05358686     0.39400
O1327       O  0.54375625  0.50205186  0.03701057    -0.80500
O1328       O  0.56078767  0.49551712  0.08151009    -0.65200
O1329       O  0.55548768  0.48334377  0.05492749    -1.11800
C1330       C  0.42575278  0.48995590  0.06090799     1.06400
O1331       O  0.51701930  0.47231884  0.08489152    -0.78400
O1332       O  0.47474506  0.45288167  0.07159012    -0.66000
Ni1333     Ni  0.58394956  0.49938087  0.04596076     1.34900
C1334       C  0.48518045  0.44489076  0.06373765     0.85100
O1335       O  0.61193889  0.48679036  0.06838361    -0.79000
O1336       O  0.62775128  0.49765402  0.05369775    -0.89200
C1337       C  0.54381345  0.48396953  0.08746412     0.84700
O1338       O  0.57239525  0.52649594  0.05095213    -0.67500
O1339       O  0.43362349  0.48833990  0.06972881    -0.86700
C1340       C  0.56744458  0.53266751  0.05946297     0.85500
C1341       C  0.63597445  0.49174921  0.06211739     1.07100
H1342       H  0.50126995  0.50825550  0.06766409     0.38900
O1343       O  0.50707802  0.49345337  0.06736425    -1.09400
O1344       O  0.49862744  0.45567075  0.05689593    -0.66000
Ni1345     Ni  0.50269755  0.48545943  0.05433174     1.26300
O1346       O  0.56454694  0.52017323  0.06650815    -0.66300
O1347       O  0.44954903  0.48823945  0.05418925    -0.78600
C1348       C  0.51940267  0.48850106  0.03471861     0.84900
O1349       O  0.50158317  0.47828289  0.04104507    -0.65700
Ni1350     Ni  0.47651551  0.48058846  0.07680135     1.27400
Ni1351     Ni  0.55941155  0.49014444  0.06813177     1.26100
H1352       H  0.56264964  0.46881510  0.05414720     0.39400
O1353       O  0.26262421  0.21758870  0.21075018    -0.80500
O1354       O  0.29051302  0.22643782  0.16680850    -0.65200
O1355       O  0.27768682  0.23759906  0.19324785    -1.11800
C1356       C  0.14994283  0.23182079  0.18525123     1.06400
O1357       O  0.24839223  0.25002403  0.16281713    -0.78400
O1358       O  0.20515262  0.26957352  0.17593095    -0.66000
Ni1359     Ni  0.30496525  0.22234943  0.20261318     1.34900
C1360       C  0.21176689  0.27622846  0.18428013     0.85100
O1361       O  0.33760044  0.23530330  0.18065551    -0.79000
O1362       O  0.35065926  0.22604232  0.19570597    -0.89200
C1363       C  0.27642578  0.23879218  0.16076411     0.84700
O1364       O  0.29763949  0.19532624  0.19721352    -0.67500
O1365       O  0.16005495  0.23532738  0.17667623    -0.86700
C1366       C  0.29434803  0.18896784  0.18869097     0.85500
C1367       C  0.36036610  0.23165939  0.18733480     1.07100
H1368       H  0.22730101  0.21306038  0.17913630     0.38900
O1369       O  0.23295899  0.22778722  0.17990945    -1.09400
O1370       O  0.22074534  0.26433185  0.19115473    -0.66000
Ni1371     Ni  0.22504513  0.23447381  0.19299765     1.26300
O1372       O  0.29102742  0.20133539  0.18162069    -0.66300
O1373       O  0.17221579  0.23114338  0.19228435    -0.78600
C1374       C  0.23643269  0.23018368  0.21272660     0.84900
O1375       O  0.21993702  0.24043274  0.20626477    -0.65700
Ni1376     Ni  0.20547023  0.24223415  0.17031553     1.27400
Ni1377     Ni  0.28532110  0.23136470  0.18009793     1.26100
H1378       H  0.28383106  0.25224502  0.19416445     0.39400
O1379       O  0.77139054  0.22366348  0.20891278    -0.80500
O1380       O  0.78212162  0.22841977  0.16388698    -0.65200
O1381       O  0.78011666  0.24125876  0.19050667    -1.11800
C1382       C  0.64967507  0.23387050  0.18603302     1.06400
O1383       O  0.73803487  0.25177982  0.16137102    -0.78400
O1384       O  0.69607640  0.27080339  0.17478416    -0.66000
Ni1385     Ni  0.80980772  0.22591769  0.19933808     1.34900
C1386       C  0.70765930  0.27888834  0.18247708     0.85100
O1387       O  0.83515636  0.23788625  0.17646235    -0.79000
O1388       O  0.85212627  0.22727794  0.19105015    -0.89200
C1389       C  0.76360572  0.23995107  0.15825815     0.84700
O1390       O  0.79751209  0.19864270  0.19473488    -0.67500
O1391       O  0.65611928  0.23515019  0.17710411    -0.86700
C1392       C  0.79279559  0.19196648  0.18629922     0.85500
C1393       C  0.85971858  0.23301314  0.18255632     1.07100
H1394       H  0.72481022  0.21546951  0.17845882     0.38900
O1395       O  0.73038048  0.23031360  0.17866272    -1.09400
O1396       O  0.72266533  0.26824410  0.18908206    -0.66000
Ni1397     Ni  0.72755276  0.23857592  0.19164244     1.26300
O1398       O  0.78901151  0.20406275  0.17912650    -0.66300
O1399       O  0.67463380  0.23535934  0.19240927    -0.78600
C1400       C  0.74558840  0.23641576  0.21107530     0.84900
O1401       O  0.72749721  0.24618056  0.20475655    -0.65700
Ni1402     Ni  0.69825091  0.24306943  0.16962772     1.27400
Ni1403     Ni  0.78263134  0.23404324  0.17729666     1.26100
H1404       H  0.78700255  0.25587352  0.19111061     0.39400
O1405       O  0.35719211  0.22721502  0.03949760    -0.80500
O1406       O  0.32763723  0.23391745  0.08289833    -0.65200
O1407       O  0.33871249  0.24686857  0.05662820    -1.11800
C1408       C  0.46722135  0.24490717  0.06406952     1.06400
O1409       O  0.36907669  0.25777848  0.08722335    -0.78400
O1410       O  0.41076727  0.27962605  0.07430150    -0.66000
Ni1411     Ni  0.31340075  0.23112510  0.04711165     1.34900
C1412       C  0.40271683  0.28701044  0.06615539     0.85100
O1413       O  0.27926528  0.24201109  0.06906975    -0.79000
O1414       O  0.26717670  0.23414358  0.05375900    -0.89200
C1415       C  0.34192126  0.24568462  0.08915612     0.84700
O1416       O  0.32059252  0.20387720  0.05239094    -0.67500
O1417       O  0.45764046  0.24660362  0.07279364    -0.86700
C1418       C  0.32490055  0.19730194  0.06085123     0.85500
C1419       C  0.25693787  0.23876288  0.06221318     1.07100
H1420       H  0.39167027  0.22305015  0.07014077     0.38900
O1421       O  0.38481209  0.23768495  0.06969480    -1.09400
O1422       O  0.39284426  0.27567949  0.05915041    -0.66000
Ni1423     Ni  0.39145722  0.24584164  0.05672385     1.26300
O1424       O  0.32870836  0.20955343  0.06793229    -0.66300
O1425       O  0.44441482  0.24453141  0.05716787    -0.78600
C1426       C  0.38009555  0.24154844  0.03721510     0.84900
O1427       O  0.39504379  0.25292666  0.04353340    -0.65700
Ni1428     Ni  0.41207605  0.25177695  0.07943579     1.27400
Ni1429     Ni  0.33200906  0.23966855  0.06965791     1.26100
H1430       H  0.33093507  0.26129009  0.05585874     0.39400
O1431       O  0.84734550  0.22219082  0.03975305    -0.80500
O1432       O  0.83566502  0.23399537  0.08285094    -0.65200
O1433       O  0.83638990  0.24548218  0.05620839    -1.11800
C1434       C  0.96680867  0.24093900  0.06032899     1.06400
O1435       O  0.87781398  0.25866134  0.08513282    -0.78400
O1436       O  0.91662379  0.27829619  0.07102201    -0.66000
Ni1437     Ni  0.80621887  0.22998130  0.04768131     1.34900
C1438       C  0.90653997  0.28513899  0.06293409     0.85100
O1439       O  0.78149982  0.24150137  0.07022616    -0.79000
O1440       O  0.76307161  0.23672316  0.05504601    -0.89200
C1441       C  0.85373093  0.24592924  0.08839049     0.84700
O1442       O  0.80950527  0.20305483  0.05348004    -0.67500
O1443       O  0.96018491  0.24403308  0.06915967    -0.86700
C1444       C  0.82019934  0.19656272  0.06154721     0.85500
C1445       C  0.75648196  0.24044529  0.06383510     1.07100
H1446       H  0.89360791  0.22197801  0.06859027     0.38900
O1447       O  0.88691110  0.23661823  0.06801740    -1.09400
O1448       O  0.89359924  0.27338140  0.05639268    -0.66000
Ni1449     Ni  0.88886175  0.24325227  0.05477015     1.26300
O1450       O  0.83052891  0.20885079  0.06814853    -0.66300
O1451       O  0.94184299  0.24054887  0.05390654    -0.78600
C1452       C  0.86965211  0.23522699  0.03603225     0.84900
O1453       O  0.88713043  0.24823500  0.04122912    -0.65700
Ni1454     Ni  0.91792064  0.25104498  0.07672187     1.27400
Ni1455     Ni  0.83445112  0.23900248  0.06943905     1.26100
H1456       H  0.82938383  0.26004928  0.05549836     0.39400
O1457       O  0.34965324  0.99741708  0.20963076    -0.80500
O1458       O  0.33517431  0.98992431  0.16551589    -0.65200
O1459       O  0.33855316  0.97677450  0.19215103    -1.11800
C1460       C  0.46844663  0.98272292  0.18711757     1.06400
O1461       O  0.37801289  0.96601118  0.16269679    -0.78400
O1462       O  0.41707521  0.94550184  0.17619650    -0.66000
Ni1463     Ni  0.30907886  0.99139571  0.20122719     1.34900
C1464       C  0.40713621  0.93814916  0.18422482     0.85100
O1465       O  0.28236875  0.98068346  0.17852341    -0.79000
O1466       O  0.26579764  0.98639281  0.19378686    -0.89200
C1467       C  0.35373385  0.97879623  0.15969986     0.84700
O1468       O  0.31442376  0.01874498  0.19598988    -0.67500
O1469       O  0.46148869  0.97983015  0.17830778    -0.86700
C1470       C  0.32174547  0.02576446  0.18773338     0.85500
C1471       C  0.25810021  0.98237680  0.18511601     1.07100
H1472       H  0.39391481  0.00180931  0.17956569     0.38900
O1473       O  0.38773768  0.98705942  0.18001023    -1.09400
O1474       O  0.39563808  0.94958301  0.19104412    -0.66000
Ni1475     Ni  0.39100708  0.97946806  0.19313988     1.26300
O1476       O  0.32969527  0.01398078  0.18071095    -0.66300
O1477       O  0.44381493  0.98262280  0.19365210    -0.78600
C1478       C  0.37397435  0.98446418  0.21243488     0.84900
O1479       O  0.39123928  0.97305288  0.20649590    -0.65700
Ni1480     Ni  0.41854826  0.97322060  0.17094466     1.27400
Ni1481     Ni  0.33521460  0.98400948  0.17894882     1.26100
H1482       H  0.33188241  0.96211990  0.19273627     0.39400
O1483       O  0.85380074  0.00063175  0.20985186    -0.80500
O1484       O  0.83647624  0.99263259  0.16655673    -0.65200
O1485       O  0.83806916  0.97941044  0.19303527    -1.11800
C1486       C  0.96802268  0.97723534  0.18746462     1.06400
O1487       O  0.87239295  0.96528679  0.16380544    -0.78400
O1488       O  0.90943510  0.94284180  0.17728208    -0.66000
Ni1489     Ni  0.81103304  0.99554960  0.20209837     1.34900
C1490       C  0.90001650  0.93661832  0.18554280     0.85100
O1491       O  0.78244242  0.98703819  0.17965818    -0.79000
O1492       O  0.76644336  0.99128402  0.19508203    -0.89200
C1493       C  0.85185687  0.98002158  0.16076651     0.84700
O1494       O  0.81676508  0.02276827  0.19655933    -0.67500
O1495       O  0.95985821  0.97416681  0.17872700    -0.86700
C1496       C  0.82790169  0.02910363  0.18846860     0.85500
C1497       C  0.75838431  0.98870996  0.18631436     1.07100
H1498       H  0.89771805  0.00037568  0.18009614     0.38900
O1499       O  0.88844302  0.98619189  0.18072948    -1.09400
O1500       O  0.89054480  0.94901992  0.19221185    -0.66000
Ni1501     Ni  0.89089851  0.97915592  0.19386505     1.26300
O1502       O  0.83723134  0.01678058  0.18176352    -0.66300
O1503       O  0.94406293  0.97926144  0.19411659    -0.78600
C1504       C  0.87467931  0.98614647  0.21296457     0.84900
O1505       O  0.89043731  0.97359188  0.20724229    -0.65700
Ni1506     Ni  0.91521749  0.97001833  0.17166421     1.27400
Ni1507     Ni  0.83569927  0.98673591  0.17991619     1.26100
H1508       H  0.82902357  0.96516749  0.19362559     0.39400
O1509       O  0.26760934  0.00802072  0.04026635    -0.80500
O1510       O  0.28753909  0.99643052  0.08369798    -0.65200
O1511       O  0.27924907  0.98522572  0.05699367    -1.11800
C1512       C  0.15056403  0.99105359  0.06365641     1.06400
O1513       O  0.24609211  0.97158957  0.08634594    -0.78400
O1514       O  0.20508572  0.95232273  0.07286431    -0.66000
Ni1515     Ni  0.30916382  0.99935211  0.04780282     1.34900
C1516       C  0.21074477  0.94653304  0.06433013     0.85100
O1517       O  0.33799168  0.98804217  0.07000613    -0.79000
O1518       O  0.35315507  0.99159799  0.05450289    -0.89200
C1519       C  0.27002724  0.98449471  0.08943453     0.84700
O1520       O  0.30933155  0.02638639  0.05354520    -0.67500
O1521       O  0.15930013  0.98612871  0.07217718    -0.86700
C1522       C  0.30087394  0.03340518  0.06172499     0.85500
C1523       C  0.36152343  0.98817748  0.06319217     1.07100
H1524       H  0.22648559  0.00933443  0.07084736     0.38900
O1525       O  0.23250568  0.99471468  0.06985016    -1.09400
O1526       O  0.21980842  0.95917994  0.05771075    -0.66000
Ni1527     Ni  0.22669500  0.98912980  0.05660638     1.26300
O1528       O  0.29053509  0.02163592  0.06858610    -0.66300
O1529       O  0.17397726  0.99314477  0.05687203    -0.78600
C1530       C  0.24244317  0.99575609  0.03730730     0.84900
O1531       O  0.22400177  0.98461561  0.04313513    -0.65700
Ni1532     Ni  0.20378624  0.97925463  0.07884886     1.27400
Ni1533     Ni  0.28513756  0.99153599  0.07019792     1.26100
H1534       H  0.28452542  0.97044069  0.05623259     0.39400
O1535       O  0.76887645  0.00127692  0.04168294    -0.80500
O1536       O  0.78494865  0.99990524  0.08584159    -0.65200
O1537       O  0.77956668  0.98339982  0.05974903    -1.11800
C1538       C  0.65141904  0.98363237  0.06306662     1.06400
O1539       O  0.72935763  0.98926061  0.09090840    -0.78400
O1540       O  0.72161394  0.95706070  0.07822155    -0.66000
Ni1541     Ni  0.80916220  0.99734171  0.05037979     1.34900
C1542       C  0.72324434  0.94753651  0.07028358     0.85100
O1543       O  0.83536232  0.98770824  0.07321928    -0.79000
O1544       O  0.85233582  0.99443385  0.05808712    -0.89200
C1545       C  0.76154723  0.99645282  0.09242924     0.84700
O1546       O  0.80207141  0.02538863  0.05467697    -0.67500
O1547       O  0.65950486  0.97647418  0.07125147    -0.86700
C1548       C  0.79698153  0.03304920  0.06291106     0.85500
C1549       C  0.85989762  0.99031881  0.06675511     1.07100
H1550       H  0.72447416  0.01165450  0.07136848     0.38900
O1551       O  0.73002633  0.99681277  0.07136849    -1.09400
O1552       O  0.72087798  0.95707071  0.06225273    -0.66000
Ni1553     Ni  0.72761920  0.98653874  0.05852948     1.26300
O1554       O  0.79080284  0.02178921  0.07022525    -0.66300
O1555       O  0.67574632  0.99085842  0.05745358    -0.78600
C1556       C  0.74529101  0.98751158  0.03926051     0.84900
O1557       O  0.72789862  0.97708520  0.04555403    -0.65700
Ni1558     Ni  0.69776903  0.98321685  0.08032494     1.27400
Ni1559     Ni  0.78283205  0.99226075  0.07267330     1.26100
H1560       H  0.78586502  0.96865187  0.05948539     0.39400
O1561       O  0.01923236  0.71221393  0.21119490    -0.80500
O1562       O  0.03923168  0.72086638  0.16889950    -0.65200
O1563       O  0.03626866  0.73505151  0.19508586    -1.11800
C1564       C  0.90663743  0.73759195  0.18961886     1.06400
O1565       O  0.00211066  0.74716428  0.16503426    -0.78400
O1566       O  0.96864195  0.77120964  0.17888661    -0.66000
Ni1567     Ni  0.06313308  0.71870925  0.20406666     1.34900
C1568       C  0.97575164  0.77756404  0.18727034     0.85100
O1569       O  0.09246106  0.72672805  0.18188887    -0.79000
O1570       O  0.10838183  0.72432127  0.19737173    -0.89200
C1571       C  0.02491534  0.73275114  0.16270123     0.84700
O1572       O  0.05994245  0.69150613  0.19839625    -0.67500
O1573       O  0.91547224  0.74140937  0.18096357    -0.86700
C1574       C  0.04663111  0.68523397  0.19056216     0.85500
C1575       C  0.11653174  0.72615515  0.18854218     1.07100
H1576       H  0.97686798  0.71401913  0.18218244     0.38900
O1577       O  0.98631247  0.72816829  0.18278276    -1.09400
O1578       O  0.98286290  0.76530833  0.19421801    -0.66000
Ni1579     Ni  0.98340697  0.73510928  0.19597400     1.26300
O1580       O  0.03622040  0.69763548  0.18404907    -0.66300
O1581       O  0.93017531  0.73468284  0.19626429    -0.78600
C1582       C  0.99907150  0.72638815  0.21481440     0.84900
O1583       O  0.98395248  0.74011246  0.20950513    -0.65700
Ni1584     Ni  0.96002499  0.74405924  0.17356523     1.27400
Ni1585     Ni  0.03908378  0.72744158  0.18207035     1.26100
H1586       H  0.04519962  0.74931793  0.19564278     0.39400
O1587       O  0.52334505  0.72131185  0.21145888    -0.80500
O1588       O  0.54090942  0.72463111  0.16690192    -0.65200
O1589       O  0.53691567  0.73849851  0.19334664    -1.11800
C1590       C  0.40650456  0.73352846  0.18792400     1.06400
O1591       O  0.49860404  0.74881838  0.16398979    -0.78400
O1592       O  0.45549775  0.76901347  0.17680812    -0.66000
Ni1593     Ni  0.56400819  0.72291463  0.20254911     1.34900
C1594       C  0.46847026  0.77743689  0.18428298     0.85100
O1595       O  0.59329323  0.73346424  0.17986848    -0.79000
O1596       O  0.60795858  0.72367464  0.19477681    -0.89200
C1597       C  0.52329206  0.73616812  0.16108320     0.84700
O1598       O  0.55088857  0.69583082  0.19796546    -0.67500
O1599       O  0.41404663  0.73360141  0.17903704    -0.86700
C1600       C  0.54673144  0.68877788  0.18958708     0.85500
C1601       C  0.61686814  0.72909011  0.18631035     1.07100
H1602       H  0.48131640  0.71338692  0.18125256     0.38900
O1603       O  0.48779081  0.72812416  0.18127910    -1.09400
O1604       O  0.48281414  0.76693491  0.19102103    -0.66000
Ni1605     Ni  0.48410335  0.73742325  0.19409540     1.26300
O1606       O  0.54500438  0.70060557  0.18227261    -0.66300
O1607       O  0.43076425  0.73592631  0.19443928    -0.78600
C1608       C  0.49973579  0.73539071  0.21355756     0.84900
O1609       O  0.48342608  0.74585603  0.20713581    -0.65700
Ni1610     Ni  0.45732881  0.74094863  0.17189178     1.27400
Ni1611     Ni  0.54045752  0.73067114  0.18025635     1.26100
H1612       H  0.54506568  0.75291886  0.19387657     0.39400
O1613       O  0.11917842  0.72868031  0.04292478    -0.80500
O1614       O  0.09783980  0.73007961  0.08678117    -0.65200
O1615       O  0.10441515  0.74673215  0.06068210    -1.11800
C1616       C  0.23384636  0.74352522  0.06656682     1.06400
O1617       O  0.13922252  0.75407809  0.09091403    -0.78400
O1618       O  0.17635575  0.77724350  0.07832211    -0.66000
Ni1619     Ni  0.07670336  0.73275645  0.05103028     1.34900
C1620       C  0.16759469  0.78571858  0.07048581     0.85100
O1621       O  0.04688060  0.73949904  0.07367510    -0.79000
O1622       O  0.03191330  0.73634901  0.05818762    -0.89200
C1623       C  0.11213394  0.74215019  0.09295602     0.84700
O1624       O  0.08178566  0.70454279  0.05552998    -0.67500
O1625       O  0.22535402  0.74511839  0.07537024    -0.86700
C1626       C  0.09046877  0.69675394  0.06354626     0.85500
C1627       C  0.02329809  0.73882595  0.06694059     1.07100
H1628       H  0.15996680  0.72143389  0.07295814     0.38900
O1629       O  0.15264977  0.73603216  0.07290530    -1.09400
O1630       O  0.15964079  0.77530474  0.06301466    -0.66000
Ni1631     Ni  0.15719192  0.74557147  0.06003554     1.26300
O1632       O  0.09783699  0.70785280  0.07082768    -0.66300
O1633       O  0.21021686  0.74376906  0.05983969    -0.78600
C1634       C  0.14206869  0.74299151  0.04057564     0.84900
O1635       O  0.15842899  0.75376920  0.04690275    -0.65700
Ni1636     Ni  0.18092862  0.74910306  0.08264408     1.27400
Ni1637     Ni  0.09990264  0.73757569  0.07356530     1.26100
H1638       H  0.09680789  0.76131340  0.06048868     0.39400
O1639       O  0.61599854  0.72750332  0.04193041    -0.80500
O1640       O  0.60170175  0.72982753  0.08623313    -0.65200
O1641       O  0.60333481  0.74557704  0.05998802    -1.11800
C1642       C  0.73329484  0.74641331  0.06526790     1.06400
O1643       O  0.63790199  0.75697086  0.08932426    -0.78400
O1644       O  0.67400604  0.78059957  0.07613853    -0.66000
Ni1645     Ni  0.57491254  0.73102385  0.05062612     1.34900
C1646       C  0.66580863  0.78712034  0.06786285     0.85100
O1647       O  0.54788975  0.73701015  0.07355686    -0.79000
O1648       O  0.53105056  0.73384171  0.05821624    -0.89200
C1649       C  0.61660486  0.74231144  0.09215045     0.84700
O1650       O  0.58214892  0.70316372  0.05528553    -0.67500
O1651       O  0.72513416  0.74963580  0.07400836    -0.86700
C1652       C  0.59265870  0.69570382  0.06322202     0.85500
C1653       C  0.52347198  0.73576215  0.06705329     1.07100
H1654       H  0.66260603  0.72288007  0.07253003     0.38900
O1655       O  0.65360795  0.73713498  0.07206837    -1.09400
O1656       O  0.65742359  0.77492883  0.06106645    -0.66000
Ni1657     Ni  0.65617711  0.74507648  0.05905615     1.26300
O1658       O  0.60131157  0.70703764  0.07035336    -0.66300
O1659       O  0.70929710  0.74424153  0.05868277    -0.78600
C1660       C  0.63972607  0.74145001  0.03965110     0.84900
O1661       O  0.65623633  0.75217039  0.04591583    -0.65700
Ni1662     Ni  0.68046641  0.75297895  0.08125576     1.27400
Ni1663     Ni  0.60094428  0.73689302  0.07299101     1.26100
H1664       H  0.59510051  0.76000593  0.05977416     0.39400
C1665       C  0.83989480  0.74599194  0.06721415     0.19000
C1666       C  0.86467217  0.75334902  0.07414032    -0.19000
C1667       C  0.90285622  0.75154544  0.07281671    -0.11300
C1668       C  0.91708007  0.74212111  0.06452680     0.21300
C1669       C  0.89233566  0.73491484  0.05756925    -0.20700
C1670       C  0.85416342  0.73668518  0.05889695    -0.11500
C1671       C  0.95731918  0.73999997  0.06266375    -0.15700
C1672       C  0.98374037  0.74110992  0.06939944    -0.29500
C1673       C  0.79963106  0.74766394  0.06918358    -0.03800
C1674       C  0.77280822  0.74503184  0.06263863    -0.40300
H1675       H  0.85443414  0.76060821  0.08061029     0.12400
H1676       H  0.92089443  0.75782865  0.07824043     0.12100
H1677       H  0.90259068  0.72763848  0.05110503     0.11500
H1678       H  0.83624141  0.73037309  0.05346057     0.11800
H1679       H  0.96543921  0.73682316  0.05534183     0.14500
H1680       H  0.97655270  0.74340692  0.07683180     0.13300
H1681       H  0.79176091  0.75146118  0.07646218     0.10900
H1682       H  0.77951945  0.74201005  0.05523577     0.13000
C1683       C  0.41683254  0.73560636  0.06567535     0.19000
C1684       C  0.39156721  0.72764705  0.05900915    -0.19000
C1685       C  0.35349263  0.72944242  0.06052419    -0.11300
C1686       C  0.33992098  0.73945062  0.06874060     0.21300
C1687       C  0.36513992  0.74720571  0.07545545    -0.20700
C1688       C  0.40320681  0.74546934  0.07393055    -0.11500
C1689       C  0.29984249  0.74158414  0.07075462    -0.15700
C1690       C  0.27331556  0.74119478  0.06403581    -0.29500
C1691       C  0.45690912  0.73413204  0.06347563    -0.03800
C1692       C  0.48415483  0.73671468  0.06990172    -0.40300
H1693       H  0.40134112  0.71995497  0.05259550     0.12400
H1694       H  0.33496165  0.72271691  0.05531788     0.12100
H1695       H  0.35532991  0.75493483  0.08185626     0.11500
H1696       H  0.42158423  0.75228133  0.07914177     0.11800
H1697       H  0.29201456  0.74427941  0.07813714     0.14500
H1698       H  0.28045990  0.73952983  0.05656119     0.13300
H1699       H  0.46425222  0.73052872  0.05614057     0.10900
H1700       H  0.47788630  0.73934217  0.07736464     0.13000
C1701       C  0.57877117  0.72597952  0.11670075     0.19000
C1702       C  0.54292912  0.72308534  0.12031176    -0.19000
C1703       C  0.53663646  0.72288080  0.13014457    -0.11300
C1704       C  0.56629099  0.72516471  0.13653305     0.21300
C1705       C  0.60233170  0.72705938  0.13292595    -0.20700
C1706       C  0.60854749  0.72765113  0.12309402    -0.11500
C1707       C  0.56014482  0.72555264  0.14696933    -0.15700
C1708       C  0.53090141  0.73545452  0.15078073    -0.29500
C1709       C  0.58455943  0.72724945  0.10625834    -0.03800
C1710       C  0.60945516  0.74052853  0.10245432    -0.40300
H1711       H  0.51968962  0.72146923  0.11551525     0.12400
H1712       H  0.50862344  0.72081052  0.13274760     0.12100
H1713       H  0.62559165  0.72854781  0.13772453     0.11500
H1714       H  0.63665651  0.72929178  0.12050027     0.11800
H1715       H  0.58090756  0.71863316  0.15158464     0.14500
H1716       H  0.51176493  0.74373091  0.14615486     0.13300
H1717       H  0.56681844  0.71800430  0.10163615     0.10900
H1718       H  0.62528815  0.75079526  0.10709344     0.13000
C1719       C  0.72311044  0.73090840  0.18909564     0.19000
C1720       C  0.74562410  0.73584816  0.19691892    -0.19000
C1721       C  0.78382787  0.73834185  0.19580145    -0.11300
C1722       C  0.80037034  0.73563889  0.18681158     0.21300
C1723       C  0.77784019  0.73072388  0.17898648    -0.20700
C1724       C  0.73963486  0.72824961  0.18010309    -0.11500
C1725       C  0.84072752  0.73814505  0.18518414    -0.15700
C1726       C  0.86677535  0.73624586  0.19199704    -0.29500
C1727       C  0.68279076  0.72823223  0.19071934    -0.03800
C1728       C  0.65672610  0.73057047  0.18394114    -0.40300
H1729       H  0.73351912  0.73801505  0.20392241     0.12400
H1730       H  0.80005401  0.74265883  0.20195437     0.12100
H1731       H  0.78993465  0.72853547  0.17198300     0.11500
H1732       H  0.72337401  0.72393180  0.17395459     0.11800
H1733       H  0.84943332  0.74069484  0.17785181     0.14500
H1734       H  0.85907856  0.73283993  0.19931541     0.13300
H1735       H  0.67412426  0.72524487  0.19802128     0.10900
H1736       H  0.66443441  0.73459264  0.17668578     0.13000
C1737       C  0.22309582  0.72828262  0.19015970     0.19000
C1738       C  0.24768386  0.73664321  0.19688155    -0.19000
C1739       C  0.28579136  0.73671859  0.19516484    -0.11300
C1740       C  0.30016747  0.72808091  0.18671058     0.21300
C1741       C  0.27555808  0.71964106  0.18000133    -0.20700
C1742       C  0.23742399  0.71962181  0.18170939    -0.11500
C1743       C  0.34023781  0.72867309  0.18435531    -0.15700
C1744       C  0.36738703  0.73106978  0.19083318    -0.29500
C1745       C  0.18298824  0.72801432  0.19244117    -0.03800
C1746       C  0.15605233  0.72734833  0.18583386    -0.40300
H1747       H  0.23730729  0.74337763  0.20345264     0.12400
H1748       H  0.30362689  0.74394830  0.20039028     0.12100
H1749       H  0.28590876  0.71294066  0.17341994     0.11500
H1750       H  0.21944008  0.71249429  0.17648208     0.11800
H1751       H  0.34760795  0.72712852  0.17687346     0.14500
H1752       H  0.36100209  0.73170154  0.19838328     0.13300
H1753       H  0.17540271  0.72882188  0.19993291     0.10900
H1754       H  0.16291883  0.72767076  0.17830147     0.13000
C1755       C  0.05870661  0.73308554  0.11640091     0.19000
C1756       C  0.05356209  0.71556740  0.12233335    -0.19000
C1757       C  0.04230261  0.71818616  0.13181641    -0.11300
C1758       C  0.03544650  0.73842003  0.13547745     0.21300
C1759       C  0.03896342  0.75581210  0.12941025    -0.20700
C1760       C  0.05070791  0.75322493  0.11999066    -0.11500
C1761       C  0.02400594  0.74186606  0.14552270    -0.15700
C1762       C  0.03618172  0.72971309  0.15268079    -0.29500
C1763       C  0.07272577  0.73017805  0.10652778    -0.03800
C1764       C  0.09643712  0.74401712  0.10262275    -0.40300
H1765       H  0.05903532  0.69989078  0.11968492     0.12400
H1766       H  0.03866461  0.70437322  0.13623218     0.12100
H1767       H  0.03324728  0.77149429  0.13201975     0.11500
H1768       H  0.05332893  0.76700359  0.11550453     0.11800
H1769       H  0.00660168  0.75533341  0.14711094     0.14500
H1770       H  0.05528675  0.71696971  0.15118320     0.13300
H1771       H  0.06533053  0.71599356  0.10267094     0.10900
H1772       H  0.10607541  0.75721525  0.10685329     0.13000
C1773       C  0.70983417  0.88865642  0.06504122     0.19000
C1774       C  0.68232521  0.87802987  0.05989985    -0.19000
C1775       C  0.67461968  0.85679919  0.06170518    -0.11300
C1776       C  0.69476083  0.84564534  0.06863997     0.21300
C1777       C  0.72313546  0.85613926  0.07352106    -0.20700
C1778       C  0.73080127  0.87730674  0.07171634    -0.11500
C1779       C  0.68731420  0.82323976  0.07112661    -0.15700
C1780       C  0.66741186  0.80988055  0.06574569    -0.29500
C1781       C  0.71460423  0.91172004  0.06364304    -0.03800
C1782       C  0.72601525  0.92442221  0.07070957    -0.40300
H1783       H  0.66584719  0.88637708  0.05469706     0.12400
H1784       H  0.65228792  0.84950717  0.05781882     0.12100
H1785       H  0.73946307  0.84792475  0.07879940     0.11500
H1786       H  0.75309903  0.88469898  0.07559671     0.11800
H1787       H  0.70094197  0.81708539  0.07743051     0.14500
H1788       H  0.65529289  0.81508721  0.05910084     0.13300
H1789       H  0.70439462  0.91867521  0.05708545     0.10900
H1790       H  0.73320525  0.91776349  0.07757744     0.13000
C1791       C  0.54473906  0.97843865  0.06356376     0.19000
C1792       C  0.51943697  0.97227306  0.07066079    -0.19000
C1793       C  0.48134816  0.97403158  0.06922756    -0.11300
C1794       C  0.46758667  0.98215367  0.06062422     0.21300
C1795       C  0.49280215  0.98784852  0.05343062    -0.20700
C1796       C  0.53091952  0.98606978  0.05485664    -0.11500
C1797       C  0.42740661  0.98478683  0.05875780    -0.15700
C1798       C  0.40078240  0.98438599  0.06552404    -0.29500
C1799       C  0.58492756  0.97709874  0.06576594    -0.03800
C1800       C  0.61247302  0.98343926  0.05992559    -0.40300
H1801       H  0.52918202  0.96617290  0.07740827     0.12400
H1802       H  0.46307750  0.96884761  0.07487099     0.12100
H1803       H  0.48297718  0.99395733  0.04669123     0.11500
H1804       H  0.54901765  0.99087006  0.04911675     0.11800
H1805       H  0.41956208  0.98797364  0.05142889     0.14500
H1806       H  0.40761476  0.98196746  0.07295295     0.13300
H1807       H  0.59213838  0.97124351  0.07279592     0.10900
H1808       H  0.60680527  0.98949127  0.05287162     0.13000
C1809       C  0.96649866  0.99315537  0.06461410     0.19000
C1810       C  0.99000593  0.99888690  0.05704562    -0.19000
C1811       C  0.02837605  0.99851319  0.05808227    -0.11300
C1812       C  0.04422214  0.99230655  0.06676868     0.21300
C1813       C  0.02070998  0.98676499  0.07437105    -0.20700
C1814       C  0.98229119  0.98714956  0.07333378    -0.11500
C1815       C  0.08481221  0.99114174  0.06830369    -0.15700
C1816       C  0.11093738  0.99407297  0.06152634    -0.29500
C1817       C  0.92599468  0.99371289  0.06292883    -0.03800
C1818       C  0.89940395  0.98882902  0.06935346    -0.40300
H1819       H  0.97862899  0.00367072  0.05025033     0.12400
H1820       H  0.04509590  0.00315056  0.05204447     0.12100
H1821       H  0.03212597  0.98195982  0.08115782     0.11500
H1822       H  0.96546481  0.98264857  0.07937567     0.11800
H1823       H  0.09359815  0.98700068  0.07546028     0.14500
H1824       H  0.10363499  0.99794150  0.05426073     0.13300
H1825       H  0.91761470  0.99862455  0.05583908     0.10900
H1826       H  0.90614759  0.98413735  0.07655800     0.13000
C1827       C  0.18107322  0.88793381  0.06565681     0.19000
C1828       C  0.15888696  0.87668007  0.07212915    -0.19000
C1829       C  0.15275309  0.85517156  0.07097299    -0.11300
C1830       C  0.16896801  0.84425187  0.06332425     0.21300
C1831       C  0.18960055  0.85558757  0.05656085    -0.20700
C1832       C  0.19588385  0.87719489  0.05772891    -0.11500
C1833       C  0.16625717  0.82096292  0.06259882    -0.15700
C1834       C  0.16673704  0.80889725  0.07046754    -0.29500
C1835       C  0.18856924  0.91052709  0.06773989    -0.03800
C1836       C  0.20589191  0.92408671  0.06182479    -0.40300
H1837       H  0.14663148  0.88450503  0.07822055     0.12400
H1838       H  0.13562210  0.84706441  0.07615122     0.12100
H1839       H  0.20213858  0.84754669  0.05056917     0.11500
H1840       H  0.21313019  0.88510122  0.05254193     0.11800
H1841       H  0.16722939  0.81365829  0.05561006     0.14500
H1842       H  0.16900108  0.81638480  0.07739449     0.13300
H1843       H  0.17853763  0.91643187  0.07453901     0.10900
H1844       H  0.21498548  0.91916761  0.05481230     0.13000
C1845       C  0.94219544  0.83495028  0.18663564     0.19000
C1846       C  0.97312950  0.84834266  0.18661661    -0.19000
C1847       C  0.96846217  0.87016402  0.18615411    -0.11300
C1848       C  0.93290754  0.87904624  0.18592244     0.21300
C1849       C  0.90195429  0.86568836  0.18636683    -0.20700
C1850       C  0.90662455  0.84384547  0.18661016    -0.11500
C1851       C  0.92916161  0.90198410  0.18420534    -0.15700
C1852       C  0.90115589  0.91382312  0.18757022    -0.29500
C1853       C  0.94603168  0.81184275  0.18554018    -0.03800
C1854       C  0.97427017  0.80043139  0.18904915    -0.40300
H1855       H  0.00087755  0.84197796  0.18643682     0.12400
H1856       H  0.99273120  0.88014609  0.18573796     0.12100
H1857       H  0.87421073  0.87201865  0.18601787     0.11500
H1858       H  0.88236146  0.83382385  0.18652608     0.11800
H1859       H  0.95126985  0.90964516  0.18022193     0.14500
H1860       H  0.88068728  0.90708400  0.19237032     0.13300
H1861       H  0.92400428  0.80371406  0.18177239     0.10900
H1862       H  0.99477107  0.80761043  0.19365467     0.13000
C1863       C  0.81341771  0.00403737  0.11606777     0.19000
C1864       C  0.84526587  0.99426307  0.11961105    -0.19000
C1865       C  0.85095866  0.99260672  0.12944050    -0.11300
C1866       C  0.82496292  0.00091843  0.13591618     0.21300
C1867       C  0.79450465  0.01199737  0.13234758    -0.20700
C1868       C  0.78864336  0.01348048  0.12252854    -0.11500
C1869       C  0.82899050  0.99850462  0.14639697    -0.15700
C1870       C  0.84624846  0.98200166  0.15039403    -0.29500
C1871       C  0.80560819  0.00314940  0.10568623    -0.03800
C1872       C  0.77090429  0.00065780  0.10246848    -0.40300
H1873       H  0.86509084  0.98721659  0.11477363     0.12400
H1874       H  0.87564813  0.98477148  0.13192854     0.12100
H1875       H  0.77460323  0.01900398  0.13717676     0.11500
H1876       H  0.76447554  0.02179945  0.12001079     0.11800
H1877       H  0.81635921  0.01030636  0.15095249     0.14500
H1878       H  0.85770489  0.96969145  0.14592974     0.13300
H1879       H  0.82871676  0.00214961  0.10073046     0.10900
H1880       H  0.74817626  0.99985320  0.10754526     0.13000
C1881       C  0.65190803  0.99023362  0.18836229     0.19000
C1882       C  0.62743445  0.98875617  0.19612989    -0.19000
C1883       C  0.58925430  0.98766616  0.19470775    -0.11300
C1884       C  0.57472714  0.98823957  0.18542754     0.21300
C1885       C  0.59922073  0.99011139  0.17768160    -0.20700
C1886       C  0.63735197  0.99118312  0.17910505    -0.11500
C1887       C  0.53466768  0.98615055  0.18334647    -0.15700
C1888       C  0.50733596  0.98612903  0.18990852    -0.29500
C1889       C  0.69217023  0.99111143  0.19030504    -0.03800
C1890       C  0.71887410  0.98769620  0.18374880    -0.40300
H1891       H  0.63793714  0.98813929  0.20334495     0.12400
H1892       H  0.57165859  0.98602644  0.20089998     0.12100
H1893       H  0.58880847  0.99069359  0.17045771     0.11500
H1894       H  0.65501689  0.99295333  0.17292790     0.11800
H1895       H  0.52737036  0.98429817  0.17588881     0.14500
H1896       H  0.51311068  0.98836273  0.19740582     0.13300
H1897       H  0.70012671  0.99428479  0.19762479     0.10900
H1898       H  0.71206367  0.98398853  0.17642900     0.13000
C1899       C  0.07452267  0.97679061  0.18524859     0.19000
C1900       C  0.09882636  0.96959764  0.17813948    -0.19000
C1901       C  0.13708371  0.97091586  0.17933383    -0.11300
C1902       C  0.15185313  0.97966210  0.18768308     0.21300
C1903       C  0.12757222  0.98667741  0.19483205    -0.20700
C1904       C  0.08932745  0.98538410  0.19363501    -0.11500
C1905       C  0.19215017  0.98149594  0.18939705    -0.15700
C1906       C  0.21869386  0.97967838  0.18265917    -0.29500
C1907       C  0.03420443  0.97561041  0.18339874    -0.03800
C1908       C  0.00753480  0.97850264  0.19000784    -0.40300
H1909       H  0.08815513  0.96287186  0.17161424     0.12400
H1910       H  0.15469276  0.96485729  0.17374293     0.12100
H1911       H  0.13824682  0.99344691  0.20134905     0.11500
H1912       H  0.07181517  0.99149752  0.19923083     0.11800
H1913       H  0.20024935  0.98513571  0.19666130     0.14500
H1914       H  0.21178352  0.97669263  0.17527757     0.13300
H1915       H  0.02613239  0.97189017  0.17614119     0.10900
H1916       H  0.01432902  0.98150719  0.19739340     0.13000
C1917       C  0.43885862  0.83536316  0.18195701     0.19000
C1918       C  0.40468728  0.84545995  0.18321860    -0.19000
C1919       C  0.40249142  0.86744484  0.18327853    -0.11300
C1920       C  0.43439839  0.87972426  0.18180251     0.21300
C1921       C  0.46852517  0.86959231  0.18048797    -0.20700
C1922       C  0.47086447  0.84763395  0.18069101    -0.11500
C1923       C  0.43246095  0.90294218  0.18077516    -0.15700
C1924       C  0.40875618  0.91512606  0.18571860    -0.29500
C1925       C  0.44015773  0.81209933  0.18127474    -0.03800
C1926       C  0.46733161  0.80057151  0.18519461    -0.40300
H1927       H  0.37961362  0.83629372  0.18409503     0.12400
H1928       H  0.37566340  0.87477898  0.18408980     0.12100
H1929       H  0.49340158  0.87871201  0.17921301     0.11500
H1930       H  0.49744708  0.84024703  0.17949668     0.11800
H1931       H  0.45215360  0.91035184  0.17594832     0.14500
H1932       H  0.39116834  0.90820680  0.19117974     0.13300
H1933       H  0.41730446  0.80417798  0.17776108     0.10900
H1934       H  0.48835218  0.80820513  0.18949447     0.13000
C1935       C  0.30887559  0.99514532  0.11457580     0.19000
C1936       C  0.34427236  0.99343779  0.11854949    -0.19000
C1937       C  0.34876780  0.99237970  0.12845036    -0.11300
C1938       C  0.31788780  0.99340809  0.13459444     0.21300
C1939       C  0.28266054  0.99611018  0.13061858    -0.20700
C1940       C  0.27810393  0.99675535  0.12071494    -0.11500
C1941       C  0.32181935  0.99209108  0.14514555    -0.15700
C1942       C  0.34776432  0.98004641  0.14928591    -0.29500
C1943       C  0.30451448  0.99525622  0.10403478    -0.03800
C1944       C  0.27653243  0.98494065  0.09982718    -0.40300
H1945       H  0.36841898  0.99248314  0.11397509     0.12400
H1946       H  0.37646925  0.99099337  0.13128062     0.12100
H1947       H  0.25852805  0.99731659  0.13518550     0.11500
H1948       H  0.25052420  0.99866762  0.11786012     0.11800
H1949       H  0.30213156  0.00053773  0.14957631     0.14500
H1950       H  0.36593443  0.97061926  0.14483925     0.13300
H1951       H  0.32554507  0.00289299  0.09968694     0.10900
H1952       H  0.25726177  0.97605616  0.10423305     0.13000
C1953       C  0.81411608  0.13664026  0.05699264     0.19000
C1954       C  0.81205155  0.12577252  0.06572752    -0.19000
C1955       C  0.81035484  0.10372416  0.06588831    -0.11300
C1956       C  0.81058994  0.09220339  0.05731232     0.21300
C1957       C  0.81337840  0.10316486  0.04866911    -0.20700
C1958       C  0.81491680  0.12503346  0.04850972    -0.11500
C1959       C  0.80845692  0.06887253  0.05685596    -0.15700
C1960       C  0.79864234  0.05614983  0.06412171    -0.29500
C1961       C  0.81381581  0.15993193  0.05618144    -0.03800
C1962       C  0.82078416  0.17357998  0.06329641    -0.40300
H1963       H  0.81099352  0.13413909  0.07242137     0.12400
H1964       H  0.80896103  0.09591290  0.07272133     0.12100
H1965       H  0.81388733  0.09477201  0.04195764     0.11500
H1966       H  0.81653198  0.13294046  0.04167817     0.11800
H1967       H  0.81455388  0.06179245  0.04998305     0.14500
H1968       H  0.79180912  0.06253605  0.07106305     0.13300
H1969       H  0.80825992  0.16620168  0.04912291     0.10900
H1970       H  0.82793607  0.16801892  0.07035844     0.13000
C1971       C  0.31399640  0.09278057  0.05655300     0.19000
C1972       C  0.31754315  0.10413363  0.06510637    -0.19000
C1973       C  0.31946880  0.12620570  0.06496089    -0.11300
C1974       C  0.31783915  0.13724779  0.05624828     0.21300
C1975       C  0.31429821  0.12573485  0.04778320    -0.20700
C1976       C  0.31262394  0.10387159  0.04792883    -0.11500
C1977       C  0.31914936  0.16059264  0.05541064    -0.15700
C1978       C  0.32503914  0.17427805  0.06257999    -0.29500
C1979       C  0.31286650  0.06945813  0.05606938    -0.03800
C1980       C  0.30306212  0.05646164  0.06325839    -0.40300
H1981       H  0.31941662  0.09607699  0.07187705     0.12400
H1982       H  0.32210606  0.13438522  0.07166395     0.12100
H1983       H  0.31291518  0.13369785  0.04096543     0.11500
H1984       H  0.31004164  0.09556635  0.04122800     0.11800
H1985       H  0.31496268  0.16692402  0.04829986     0.14500
H1986       H  0.32953843  0.16879409  0.06979455     0.13300
H1987       H  0.31898372  0.06266305  0.04913892     0.10900
H1988       H  0.29554637  0.06269653  0.07018945     0.13000
C1989       C  0.65025712  0.24522534  0.06283535     0.19000
C1990       C  0.62557235  0.25260790  0.05591141    -0.19000
C1991       C  0.58753816  0.25282229  0.05767207    -0.11300
C1992       C  0.57338179  0.24533759  0.06638353     0.21300
C1993       C  0.59808095  0.23832899  0.07338292    -0.20700
C1994       C  0.63616334  0.23810407  0.07162037    -0.11500
C1995       C  0.53320742  0.24519916  0.06851466    -0.15700
C1996       C  0.50700333  0.24381338  0.06174940    -0.29500
C1997       C  0.69006734  0.24393394  0.06035677    -0.03800
C1998       C  0.71757166  0.24330843  0.06679931    -0.40300
H1999       H  0.63577761  0.25821958  0.04909763     0.12400
H2000       H  0.56945272  0.25904047  0.05223564     0.12100
H2001       H  0.58780016  0.23260305  0.08016888     0.11500
H2002       H  0.65421430  0.23181153  0.07704344     0.11800
H2003       H  0.52501696  0.24582926  0.07596797     0.14500
H2004       H  0.51472074  0.24221468  0.05430553     0.13300
H2005       H  0.69694404  0.24359416  0.05281164     0.10900
H2006       H  0.71163934  0.24477105  0.07435283     0.13000
C2007       C  0.07331515  0.23779946  0.06197798     0.19000
C2008       C  0.09728486  0.23784716  0.06981780    -0.19000
C2009       C  0.13548853  0.23710088  0.06854086    -0.11300
C2010       C  0.15079393  0.23652193  0.05932463     0.21300
C2011       C  0.12685875  0.23617855  0.05146033    -0.20700
C2012       C  0.08847450  0.23687995  0.05274323    -0.11500
C2013       C  0.19132366  0.23568982  0.05760593    -0.15700
C2014       C  0.21699154  0.24032993  0.06422964    -0.29500
C2015       C  0.03308063  0.23933012  0.06395359    -0.03800
C2016       C  0.00583220  0.23800134  0.05744307    -0.40300
H2017       H  0.08639782  0.23842948  0.07701725     0.12400
H2018       H  0.15257175  0.23668807  0.07483262     0.12100
H2019       H  0.13792006  0.23555707  0.04428079     0.11500
H2020       H  0.07116280  0.23694178  0.04648841     0.11800
H2021       H  0.20037142  0.23126250  0.05049305     0.14500
H2022       H  0.20902201  0.24543144  0.07130423     0.13300
H2023       H  0.02553841  0.24195567  0.07136094     0.10900
H2024       H  0.01181055  0.23518310  0.04998470     0.13000
C2025       C  0.80744942  0.08822803  0.18934487     0.19000
C2026       C  0.84025194  0.09889523  0.19163387    -0.19000
C2027       C  0.84111901  0.12087751  0.19176862    -0.11300
C2028       C  0.80960429  0.13256432  0.18934412     0.21300
C2029       C  0.77707142  0.12185741  0.18678232    -0.20700
C2030       C  0.77589589  0.09985935  0.18693228    -0.11500
C2031       C  0.81046989  0.15575049  0.19040408    -0.15700
C2032       C  0.79169170  0.16901015  0.18472479    -0.29500
C2033       C  0.80478341  0.06512931  0.19036492    -0.03800
C2034       C  0.83037906  0.05196290  0.18680691    -0.40300
H2035       H  0.86469511  0.09023432  0.19371822     0.12400
H2036       H  0.86633419  0.12879796  0.19388620     0.12100
H2037       H  0.75211494  0.13044859  0.18509051     0.11500
H2038       H  0.75020735  0.09189220  0.18527277     0.11800
H2039       H  0.82819226  0.16218544  0.19592567     0.14500
H2040       H  0.77658534  0.16301418  0.17862803     0.13300
H2041       H  0.78055881  0.05874677  0.19396953     0.10900
H2042       H  0.85277771  0.05802649  0.18240355     0.13000
C2043       C  0.80530892  0.23098228  0.13329573     0.19000
C2044       C  0.84113727  0.23207400  0.12946008    -0.19000
C2045       C  0.84649093  0.23301890  0.11958674    -0.11300
C2046       C  0.81602929  0.23250151  0.11337024     0.21300
C2047       C  0.78033493  0.23047794  0.11719594    -0.20700
C2048       C  0.77494139  0.22990697  0.12706035    -0.11500
C2049       C  0.82088551  0.23349307  0.10288130    -0.15700
C2050       C  0.84717508  0.24544999  0.09877151    -0.29500
C2051       C  0.80007727  0.23069397  0.14379439    -0.03800
C2052       C  0.77110440  0.24028333  0.14792632    -0.40300
H2053       H  0.86495661  0.23256058  0.13411564     0.12400
H2054       H  0.87446035  0.23389048  0.11682399     0.12100
H2055       H  0.75653598  0.22966805  0.11254109     0.11500
H2056       H  0.74701718  0.22837162  0.12979466     0.11800
H2057       H  0.80159749  0.22479462  0.09845394     0.14500
H2058       H  0.86495777  0.25515121  0.10318303     0.13300
H2059       H  0.82099639  0.22324071  0.14818659     0.10900
H2060       H  0.75177587  0.24901470  0.14353447     0.13000
C2061       C  0.30417111  0.12924363  0.19325033     0.19000
C2062       C  0.30138182  0.11813409  0.18459478    -0.19000
C2063       C  0.30456479  0.09614349  0.18447675    -0.11300
C2064       C  0.31056613  0.08499420  0.19300173     0.21300
C2065       C  0.31311792  0.09615837  0.20156589    -0.20700
C2066       C  0.31012381  0.11793437  0.20168374    -0.11500
C2067       C  0.31258831  0.06176208  0.19355462    -0.15700
C2068       C  0.32052840  0.04880533  0.18624670    -0.29500
C2069       C  0.30157095  0.15247177  0.19407173    -0.03800
C2070       C  0.29495008  0.16604203  0.18690551    -0.40300
H2071       H  0.29673130  0.12617912  0.17792546     0.12400
H2072       H  0.30162975  0.08798810  0.17776540     0.12100
H2073       H  0.31751417  0.08797728  0.20824140     0.11500
H2074       H  0.31239631  0.12598374  0.20845570     0.11800
H2075       H  0.30816672  0.05498467  0.20058225     0.14500
H2076       H  0.32635392  0.05500514  0.17919329     0.13300
H2077       H  0.30578098  0.15883738  0.20116993     0.10900
H2078       H  0.29067399  0.16057828  0.17968420     0.13000
C2079       C  0.46666434  0.23123300  0.18948574     0.19000
C2080       C  0.49183451  0.21863771  0.19450411    -0.19000
C2081       C  0.52984135  0.22012462  0.19269448    -0.11300
C2082       C  0.54328045  0.23442619  0.18586540     0.21300
C2083       C  0.51817374  0.24725522  0.18098092    -0.20700
C2084       C  0.48030341  0.24584353  0.18281443    -0.11500
C2085       C  0.58290141  0.23582070  0.18325096    -0.15700
C2086       C  0.61094340  0.23095221  0.18913364    -0.29500
C2087       C  0.42654241  0.22901838  0.19150655    -0.03800
C2088       C  0.40009629  0.23411565  0.18518225    -0.40300
H2089       H  0.48199013  0.20733955  0.19971355     0.12400
H2090       H  0.54840003  0.20972145  0.19645704     0.12100
H2091       H  0.52794013  0.25848970  0.17573112     0.11500
H2092       H  0.46197552  0.25636732  0.17905293     0.11800
H2093       H  0.58924988  0.24220720  0.17624176     0.14500
H2094       H  0.60554516  0.22610480  0.19642572     0.13300
H2095       H  0.41859124  0.22221749  0.19832225     0.10900
H2096       H  0.40752893  0.23973160  0.17812635     0.13000
C2097       C  0.04404955  0.22907680  0.18161888     0.19000
C2098       C  0.02064945  0.23671841  0.17443554    -0.19000
C2099       C  0.98217928  0.23612553  0.17553136    -0.11300
C2100       C  0.96628056  0.22769472  0.18386524     0.21300
C2101       C  0.98972813  0.21962834  0.19093890    -0.20700
C2102       C  0.02810602  0.22022452  0.18984320    -0.11500
C2103       C  0.92577381  0.22717039  0.18571571    -0.15700
C2104       C  0.89917193  0.23390142  0.17971828    -0.29500
C2105       C  0.08470818  0.23056597  0.18016530    -0.03800
C2106       C  0.11006063  0.22870226  0.18715340    -0.40300
H2107       H  0.03220626  0.24345939  0.16798330     0.12400
H2108       H  0.96539336  0.24246778  0.16987097     0.12100
H2109       H  0.97829801  0.21285917  0.19740046     0.11500
H2110       H  0.04489082  0.21356794  0.19543472     0.11800
H2111       H  0.91740202  0.22085639  0.19259476     0.14500
H2112       H  0.90588902  0.24000340  0.17271358     0.13300
H2113       H  0.09408489  0.23432050  0.17299434     0.10900
H2114       H  0.10170809  0.22578641  0.19446054     0.13000
C2115       C  0.32539029  0.25451845  0.11595451     0.19000
C2116       C  0.34880095  0.25406359  0.12390151    -0.19000
C2117       C  0.33403416  0.25310676  0.13311873    -0.11300
C2118       C  0.29548049  0.25291210  0.13453360     0.21300
C2119       C  0.27213560  0.25432387  0.12660770    -0.20700
C2120       C  0.28687044  0.25497492  0.11739762    -0.11500
C2121       C  0.27872286  0.25159081  0.14416627    -0.15700
C2122       C  0.29426798  0.24075175  0.15133512    -0.29500
C2123       C  0.34182260  0.25485740  0.10626025    -0.03800
C2124       C  0.32513545  0.24588223  0.09874150    -0.40300
H2125       H  0.37856976  0.25409650  0.12296490     0.12400
H2126       H  0.35278135  0.25273894  0.13911090     0.12100
H2127       H  0.24236934  0.25457724  0.12754143     0.11500
H2128       H  0.26807287  0.25606897  0.11143573     0.11800
H2129       H  0.25163404  0.25863900  0.14520583     0.14500
H2130       H  0.32012368  0.23244483  0.15018843     0.13300
H2131       H  0.36926010  0.26163879  0.10539682     0.10900
H2132       H  0.29902920  0.23764732  0.09968555     0.13000
C2133       C  0.57432740  0.63671316  0.05974145     0.19000
C2134       C  0.54266987  0.62408407  0.06076868    -0.19000
C2135       C  0.54512100  0.60220258  0.05990426    -0.11300
C2136       C  0.57913347  0.59267867  0.05767931     0.21300
C2137       C  0.61066429  0.60534302  0.05653968    -0.20700
C2138       C  0.60844014  0.62714393  0.05770887    -0.11500
C2139       C  0.58185924  0.56977532  0.05589489    -0.15700
C2140       C  0.56445501  0.55543551  0.06135341    -0.29500
C2141       C  0.57071424  0.65989877  0.05984519    -0.03800
C2142       C  0.59535547  0.67263145  0.06411817    -0.40300
H2143       H  0.51599366  0.63119292  0.06217713     0.12400
H2144       H  0.52023827  0.59281407  0.06061946     0.12100
H2145       H  0.63703790  0.59833671  0.05470730     0.11500
H2146       H  0.63306020  0.63659964  0.05664622     0.11800
H2147       H  0.60014756  0.56453345  0.05021209     0.14500
H2148       H  0.54897058  0.56047893  0.06759306     0.13300
H2149       H  0.54674903  0.66670756  0.05635401     0.10900
H2150       H  0.61747507  0.66601543  0.06838930     0.13000
C2151       C  0.43931266  0.34380873  0.06688507     0.19000
C2152       C  0.47499801  0.35227700  0.06577129    -0.19000
C2153       C  0.48043341  0.37407821  0.06544031    -0.11300
C2154       C  0.45026070  0.38780635  0.06647221     0.21300
C2155       C  0.41460072  0.37931073  0.06756953    -0.20700
C2156       C  0.40906413  0.35753397  0.06764911    -0.11500
C2157       C  0.45536640  0.41089605  0.06729896    -0.15700
C2158       C  0.48136015  0.42187973  0.06249568    -0.29500
C2159       C  0.43471921  0.32077398  0.06809484    -0.03800
C2160       C  0.40560526  0.30993630  0.06469228    -0.40300
H2161       H  0.49876628  0.34198093  0.06528009     0.12400
H2162       H  0.50833488  0.38014988  0.06479756     0.12100
H2163       H  0.39099182  0.38958257  0.06849479     0.11500
H2164       H  0.38135404  0.35146117  0.06872457     0.11800
H2165       H  0.43593832  0.41931235  0.07182535     0.14500
H2166       H  0.49888990  0.41405813  0.05729991     0.13300
H2167       H  0.45683755  0.31227329  0.07163617     0.10900
H2168       H  0.38516284  0.31771526  0.06027401     0.13000
C2169       C  0.08125578  0.59321216  0.05873443     0.19000
C2170       C  0.11308618  0.60586591  0.05834281    -0.19000
C2171       C  0.11031856  0.62777533  0.05896883    -0.11300
C2172       C  0.07548912  0.63743448  0.05966164     0.21300
C2173       C  0.04362987  0.62479770  0.05998081    -0.20700
C2174       C  0.04648707  0.60284506  0.05969207    -0.11500
C2175       C  0.07181224  0.66062812  0.05923595    -0.15700
C2176       C  0.09303770  0.67363662  0.06443766    -0.29500
C2177       C  0.08457145  0.57024466  0.05716603    -0.03800
C2178       C  0.06550519  0.55588756  0.06226024    -0.40300
H2179       H  0.14010359  0.59876851  0.05746247     0.12400
H2180       H  0.13523842  0.63720879  0.05851082     0.12100
H2181       H  0.01649817  0.63195264  0.06038602     0.11500
H2182       H  0.02147698  0.59344611  0.05979442     0.11800
H2183       H  0.05030636  0.66713579  0.05472182     0.14500
H2184       H  0.11221558  0.66715242  0.06960371     0.13300
H2185       H  0.10414137  0.56496978  0.05177967     0.10900
H2186       H  0.04849017  0.56086461  0.06824038     0.13000
C2187       C  0.74282348  0.49584828  0.06089450     0.19000
C2188       C  0.76768169  0.50616246  0.05472577    -0.19000
C2189       C  0.80591475  0.50469490  0.05608960    -0.11300
C2190       C  0.82005739  0.49278488  0.06367550     0.21300
C2191       C  0.79528831  0.48282522  0.06994542    -0.20700
C2192       C  0.75714221  0.48415200  0.06855135    -0.11500
C2193       C  0.86024196  0.49063096  0.06548715    -0.15700
C2194       C  0.88680328  0.49238256  0.05875272    -0.29500
C2195       C  0.70253778  0.49708719  0.05881714    -0.03800
C2196       C  0.67543703  0.49060565  0.06477907    -0.40300
H2197       H  0.75747565  0.51535931  0.04879373     0.12400
H2198       H  0.82416001  0.51306190  0.05126941     0.12100
H2199       H  0.80554218  0.47361638  0.07587009     0.11500
H2200       H  0.73937255  0.47561812  0.07340448     0.11800
H2201       H  0.86807426  0.48620436  0.07268379     0.14500
H2202       H  0.87963451  0.49565820  0.05139980     0.13300
H2203       H  0.69485301  0.50379616  0.05198115     0.10900
H2204       H  0.68177912  0.48459000  0.07180604     0.13000
C2205       C  0.24287339  0.49810414  0.06036786     0.19000
C2206       C  0.26753545  0.50355592  0.05300519    -0.19000
C2207       C  0.30574757  0.50303218  0.05443599    -0.11300
C2208       C  0.32012670  0.49697710  0.06330815     0.21300
C2209       C  0.29550545  0.49217889  0.07076149    -0.20700
C2210       C  0.25731630  0.49269810  0.06933609    -0.11500
C2211       C  0.36037332  0.49545092  0.06518111    -0.15700
C2212       C  0.38665605  0.49364004  0.05837737    -0.29500
C2213       C  0.20256902  0.49863851  0.05833920    -0.03800
C2214       C  0.17605055  0.49087290  0.06414077    -0.40300
H2215       H  0.25719551  0.50813670  0.04607337     0.12400
H2216       H  0.32368686  0.50752724  0.04859810     0.12100
H2217       H  0.30587472  0.48775918  0.07771369     0.11500
H2218       H  0.23959525  0.48897176  0.07531679     0.11800
H2219       H  0.36847747  0.49454531  0.07262035     0.14500
H2220       H  0.37949297  0.49382605  0.05088578     0.13300
H2221       H  0.19438261  0.50559552  0.05159326     0.10900
H2222       H  0.18290445  0.48361316  0.07088783     0.13000
C2223       C  0.95315794  0.38635722  0.06387688     0.19000
C2224       C  0.98388773  0.37287469  0.06348513    -0.19000
C2225       C  0.97889464  0.35100576  0.06348992    -0.11300
C2226       C  0.94318015  0.34219908  0.06362699     0.21300
C2227       C  0.91248481  0.35571417  0.06371755    -0.20700
C2228       C  0.91749106  0.37754368  0.06396610    -0.11500
C2229       C  0.93877488  0.31906164  0.06470361    -0.15700
C2230       C  0.91028027  0.30796336  0.06107029    -0.29500
C2231       C  0.95738951  0.40943862  0.06516008    -0.03800
C2232       C  0.98426470  0.42102982  0.06100831    -0.40300
H2233       H  0.01172393  0.37918339  0.06362545     0.12400
H2234       H  0.00300332  0.34091538  0.06355452     0.12100
H2235       H  0.88464956  0.34944087  0.06406114     0.11500
H2236       H  0.89339835  0.38760506  0.06439069     0.11800
H2237       H  0.96028519  0.31074439  0.06856702     0.14500
H2238       H  0.89036102  0.31553031  0.05642761     0.13300
H2239       H  0.93661312  0.41734489  0.06947420     0.10900
H2240       H  0.00322924  0.41378273  0.05597622     0.13000
C2241       C  0.54251784  0.58464378  0.19551011     0.19000
C2242       C  0.53305740  0.59617557  0.20367753    -0.19000
C2243       C  0.53339837  0.61809662  0.20357211    -0.11300
C2244       C  0.54287494  0.62919282  0.19527227     0.21300
C2245       C  0.55211807  0.61778420  0.18701796    -0.20700
C2246       C  0.55191678  0.59573109  0.18712731    -0.11500
C2247       C  0.54452757  0.65251819  0.19581449    -0.15700
C2248       C  0.54421432  0.66569571  0.18827563    -0.29500
C2249       C  0.54243460  0.56124940  0.19626420    -0.03800
C2250       C  0.55140617  0.54785245  0.18919286    -0.40300
H2251       H  0.52566608  0.58818679  0.21023798     0.12400
H2252       H  0.52633264  0.62644218  0.21005113     0.12100
H2253       H  0.56036743  0.62573625  0.18053489     0.11500
H2254       H  0.55949239  0.58765351  0.18065075     0.11800
H2255       H  0.54540851  0.65920651  0.20293291     0.14500
H2256       H  0.54190671  0.65965071  0.18108073     0.13300
H2257       H  0.53435893  0.55465989  0.20311554     0.10900
H2258       H  0.55906512  0.55360282  0.18219344     0.13000
C2259       C  0.66177919  0.37980206  0.18081293     0.19000
C2260       C  0.69737240  0.37110947  0.18124831    -0.19000
C2261       C  0.70231016  0.34930926  0.18124543    -0.11300
C2262       C  0.67166847  0.33577489  0.18054348     0.21300
C2263       C  0.63601883  0.34449199  0.18006075    -0.20700
C2264       C  0.63102614  0.36632184  0.18033289    -0.11500
C2265       C  0.67635009  0.31269578  0.17954544    -0.15700
C2266       C  0.70355548  0.30180455  0.18383901    -0.29500
C2267       C  0.65777534  0.40291381  0.18006788    -0.03800
C2268       C  0.63216081  0.41389216  0.18493700    -0.40300
H2269       H  0.72145276  0.38125271  0.18150854     0.12400
H2270       H  0.73017260  0.34311293  0.18139891     0.12100
H2271       H  0.61202522  0.33437689  0.17939460     0.11500
H2272       H  0.60333216  0.37267427  0.17979551     0.11800
H2273       H  0.65595873  0.30427416  0.17533625     0.14500
H2274       H  0.72210524  0.30965319  0.18876064     0.13300
H2275       H  0.67812876  0.41131198  0.17578676     0.10900
H2276       H  0.61396777  0.40588304  0.18994578     0.13000
C2277       C  0.54760464  0.47491785  0.11465251     0.19000
C2278       C  0.52045126  0.47470463  0.12183817    -0.19000
C2279       C  0.53047951  0.47430363  0.13146164    -0.11300
C2280       C  0.56801036  0.47380916  0.13407400     0.21300
C2281       C  0.59508644  0.47349969  0.12688339    -0.20700
C2282       C  0.58508486  0.47416750  0.11727668    -0.11500
C2283       C  0.58001283  0.47271541  0.14417037    -0.15700
C2284       C  0.56043728  0.48080136  0.15146998    -0.29500
C2285       C  0.53593736  0.47509840  0.10451141    -0.03800
C2286       C  0.55655569  0.48353941  0.09745503    -0.40300
H2287       H  0.49137344  0.47493086  0.11999544     0.12400
H2288       H  0.50882733  0.47390775  0.13680516     0.12100
H2289       H  0.62415312  0.47279002  0.12871115     0.11500
H2290       H  0.60673195  0.47362197  0.11193731     0.11800
H2291       H  0.60699172  0.46588635  0.14558259     0.14500
H2292       H  0.53462158  0.48897460  0.15014705     0.13300
H2293       H  0.50863758  0.46891984  0.10286965     0.10900
H2294       H  0.58266875  0.49117614  0.09906658     0.13000
C2295       C  0.04380898  0.58155807  0.19188789     0.19000
C2296       C  0.01356906  0.59530722  0.19196058    -0.19000
C2297       C  0.01922987  0.61704019  0.19212993    -0.11300
C2298       C  0.05529875  0.62529532  0.19253199     0.21300
C2299       C  0.08552905  0.61151700  0.19250055    -0.20700
C2300       C  0.07987829  0.58979856  0.19202389    -0.11500
C2301       C  0.06174187  0.64810219  0.19369085    -0.15700
C2302       C  0.04192017  0.66251545  0.18894892    -0.29500
C2303       C  0.03737833  0.55871584  0.19268494    -0.03800
C2304       C  0.05574631  0.54469459  0.18733274    -0.40300
H2305       H  0.98557322  0.58919308  0.19199474     0.12400
H2306       H  0.99542894  0.62734346  0.19234907     0.12100
H2307       H  0.11350197  0.61758269  0.19291640     0.11500
H2308       H  0.10358189  0.57941575  0.19218191     0.11800
H2309       H  0.08391164  0.65311907  0.19838375     0.14500
H2310       H  0.02191510  0.65750859  0.18365161     0.13300
H2311       H  0.01673390  0.55331068  0.19778593     0.10900
H2312       H  0.07396248  0.55003455  0.18164248     0.13000
C2313       C  0.79909649  0.48403576  0.18626027     0.19000
C2314       C  0.82341937  0.48410232  0.17842702    -0.19000
C2315       C  0.86167718  0.48410577  0.17974097    -0.11300
C2316       C  0.87652451  0.48394576  0.18897779     0.21300
C2317       C  0.85227882  0.48416473  0.19681509    -0.20700
C2318       C  0.81399342  0.48415125  0.19550534    -0.11500
C2319       C  0.91688966  0.48434963  0.19082383    -0.15700
C2320       C  0.94317637  0.47955248  0.18434375    -0.29500
C2321       C  0.75873782  0.48340375  0.18431471    -0.03800
C2322       C  0.73176036  0.48283546  0.19098101    -0.40300
H2323       H  0.81277521  0.48414626  0.17122099     0.12400
H2324       H  0.87924123  0.48456653  0.17349611     0.12100
H2325       H  0.86302348  0.48424032  0.20401116     0.11500
H2326       H  0.79660285  0.48415697  0.20177437     0.11800
H2327       H  0.92528634  0.48856471  0.19800045     0.14500
H2328       H  0.93586400  0.47461635  0.17720542     0.13300
H2329       H  0.75087439  0.48282659  0.17685276     0.10900
H2330       H  0.73805878  0.48341024  0.19851068     0.13000
C2331       C  0.37622430  0.48592678  0.18827865     0.19000
C2332       C  0.35136765  0.48642921  0.19596785    -0.19000
C2333       C  0.31333030  0.48504345  0.19447321    -0.11300
C2334       C  0.29922117  0.48323749  0.18517761     0.21300
C2335       C  0.32411213  0.48304221  0.17747092    -0.20700
C2336       C  0.36218919  0.48444008  0.17897234    -0.11500
C2337       C  0.25913233  0.48113383  0.18310925    -0.15700
C2338       C  0.23203517  0.48141425  0.18972714    -0.29500
C2339       C  0.41629855  0.48732098  0.19037288    -0.03800
C2340       C  0.44335190  0.48253441  0.18413440    -0.40300
H2341       H  0.36144822  0.48770155  0.20320517     0.12400
H2342       H  0.29558629  0.48525142  0.20066977     0.12100
H2343       H  0.31406402  0.48179245  0.17022997     0.11500
H2344       H  0.38017621  0.48457835  0.17280755     0.11800
H2345       H  0.25162115  0.47891058  0.17568576     0.14500
H2346       H  0.23802387  0.48367497  0.19720261     0.13300
H2347       H  0.42382074  0.49198708  0.19755815     0.10900
H2348       H  0.43701411  0.47730497  0.17697951     0.13000
C2349       C  0.16819249  0.37739405  0.18406267     0.19000
C2350       C  0.20349963  0.36860797  0.18520161    -0.19000
C2351       C  0.20835102  0.34679406  0.18499008    -0.11300
C2352       C  0.17796534  0.33344192  0.18339584     0.21300
C2353       C  0.14260966  0.34224045  0.18241872    -0.20700
C2354       C  0.13764791  0.36399865  0.18285390    -0.11500
C2355       C  0.18266538  0.31057805  0.18181128    -0.15700
C2356       C  0.20857729  0.29894142  0.18617241    -0.29500
C2357       C  0.16438122  0.40047439  0.18314096    -0.03800
C2358       C  0.13484898  0.41114343  0.18638659    -0.40300
H2359       H  0.22745966  0.37867884  0.18605247     0.12400
H2360       H  0.23605122  0.34050088  0.18559041     0.12100
H2361       H  0.11886227  0.33225425  0.18110962     0.11500
H2362       H  0.11022583  0.37036019  0.18176068     0.11800
H2363       H  0.16311979  0.30285373  0.17709151     0.14500
H2364       H  0.22603725  0.30586118  0.19161643     0.13300
H2365       H  0.18701237  0.40906302  0.17979506     0.10900
H2366       H  0.11372259  0.40322501  0.19059311     0.13000
C2367       C  0.04948467  0.47034753  0.11405424     0.19000
C2368       C  0.02220557  0.47156231  0.12116581    -0.19000
C2369       C  0.03168547  0.47027388  0.13079564    -0.11300
C2370       C  0.06880750  0.46752898  0.13351870     0.21300
C2371       C  0.09599180  0.46582336  0.12637934    -0.20700
C2372       C  0.08653131  0.46734911  0.11674061    -0.11500
C2373       C  0.08008532  0.46589057  0.14368132    -0.15700
C2374       C  0.06055075  0.47431591  0.15091853    -0.29500
C2375       C  0.03805120  0.47135242  0.10392468    -0.03800
C2376       C  0.05942351  0.47949171  0.09696314    -0.40300
H2377       H  0.99340913  0.47357613  0.11925795     0.12400
H2378       H  0.00973617  0.47099464  0.13604164     0.12100
H2379       H  0.12470329  0.46340748  0.12827090     0.11500
H2380       H  0.10808943  0.46574661  0.11141798     0.11800
H2381       H  0.10649207  0.45848453  0.14520295     0.14500
H2382       H  0.03540086  0.48303549  0.14949866     0.13300
H2383       H  0.01005853  0.46634405  0.10223723     0.10900
H2384       H  0.08630892  0.48614869  0.09863459     0.13000
C2385       C  0.84655155  0.00058413  0.81572561     0.19000
C2386       C  0.87105054  0.99033896  0.80949571    -0.19000
C2387       C  0.90921992  0.99172788  0.81080783    -0.11300
C2388       C  0.92364896  0.00364596  0.81835358     0.21300
C2389       C  0.89917640  0.01374551  0.82463132    -0.20700
C2390       C  0.86098439  0.01238555  0.82331147    -0.11500
C2391       C  0.96386817  0.00550365  0.82009858    -0.15700
C2392       C  0.98997143  0.00292172  0.81332564    -0.29500
C2393       C  0.80641755  0.99917613  0.81376676    -0.03800
C2394       C  0.77944876  0.00345750  0.82013768    -0.40300
H2395       H  0.86059513  0.98112075  0.80360135     0.12400
H2396       H  0.92713476  0.98320838  0.80598872     0.12100
H2397       H  0.90968683  0.02298860  0.83050981     0.11500
H2398       H  0.84313052  0.02093051  0.82812998     0.11800
H2399       H  0.97219010  0.00995970  0.82725122     0.14500
H2400       H  0.98234463  0.99947187  0.80602490     0.13300
H2401       H  0.79879089  0.99383946  0.80668541     0.10900
H2402       H  0.78597670  0.00781654  0.82740550     0.13000
C2403       C  0.34639124  0.00276132  0.81265449     0.19000
C2404       C  0.37161117  0.00720291  0.80529295    -0.19000
C2405       C  0.40969536  0.00639632  0.80691074    -0.11300
C2406       C  0.42328616  0.00084506  0.81594623     0.21300
C2407       C  0.39802269  0.99615454  0.82326566    -0.20700
C2408       C  0.36000093  0.99697613  0.82165024    -0.11500
C2409       C  0.46323920  0.00098961  0.81828495    -0.15700
C2410       C  0.49090163  0.00132777  0.81182238    -0.29500
C2411       C  0.30629430  0.00327305  0.81051776    -0.03800
C2412       C  0.27961096  0.00485462  0.81720352    -0.40300
H2413       H  0.36178875  0.01154841  0.79827938     0.12400
H2414       H  0.42808605  0.01058632  0.80112238     0.12100
H2415       H  0.40775850  0.99181256  0.83028832     0.11500
H2416       H  0.34159659  0.99271926  0.82742982     0.11800
H2417       H  0.47012253  0.00111760  0.82581696     0.14500
H2418       H  0.48523003  0.00042536  0.80425570     0.13300
H2419       H  0.29849675  0.00215484  0.80306388     0.10900
H2420       H  0.28658481  0.00679312  0.82465897     0.13000
C2421       C  0.75430577  0.99220890  0.01184247     0.19000
C2422       C  0.78308066  0.99983779  0.00602233    -0.19000
C2423       C  0.78020364  0.99947062  0.99610517    -0.11300
C2424       C  0.74812681  0.99160140  0.99174180     0.21300
C2425       C  0.71952685  0.98365543  0.99754828    -0.20700
C2426       C  0.72242085  0.98401081  0.00749512    -0.11500
C2427       C  0.74345823  0.99109341  0.98121582    -0.15700
C2428       C  0.76339930  0.00272630  0.97497854    -0.29500
C2429       C  0.75871884  0.99397252  0.02234031    -0.03800
C2430       C  0.73735978  0.98448890  0.02900196    -0.40300
H2431       H  0.80806112  0.00615244  0.00917020     0.12400
H2432       H  0.80335334  0.00518561  0.99194406     0.12100
H2433       H  0.69454863  0.97741028  0.99437313     0.11500
H2434       H  0.69940141  0.97822863  0.01168660     0.11800
H2435       H  0.72129924  0.98122479  0.97850506     0.14500
H2436       H  0.78456072  0.01350572  0.97743257     0.13300
H2437       H  0.78182977  0.00355143  0.02472320     0.10900
H2438       H  0.71489786  0.97409178  0.02701097     0.13000
C2439       C  0.68756355  0.99701504  0.86728761     0.19000
C2440       C  0.72362225  0.99886853  0.87084406    -0.19000
C2441       C  0.72994260  0.99938768  0.88067616    -0.11300
C2442       C  0.70025988  0.99772600  0.88716639     0.21300
C2443       C  0.66433321  0.99513558  0.88361131    -0.20700
C2444       C  0.65794977  0.99495883  0.87377889    -0.11500
C2445       C  0.70621470  0.99807053  0.89764518    -0.15700
C2446       C  0.73298671  0.00973298  0.90166460    -0.29500
C2447       C  0.68153622  0.99689789  0.85680367    -0.03800
C2448       C  0.65147798  0.00571158  0.85287385    -0.40300
H2449       H  0.74691450  0.00018140  0.86599789     0.12400
H2450       H  0.75813523  0.00073984  0.88317685     0.12100
H2451       H  0.64110114  0.99349194  0.88845799     0.11500
H2452       H  0.62989600  0.99288972  0.87127123     0.11800
H2453       H  0.68729139  0.98920783  0.90215793     0.14500
H2454       H  0.75026043  0.01972001  0.89720579     0.13300
H2455       H  0.70304413  0.99049329  0.85222781     0.10900
H2456       H  0.63148691  0.01356689  0.85743617     0.13000
C2457       C  0.25441057  0.00171536  0.01002148     0.19000
C2458       C  0.27998367  0.01272926  0.00431186    -0.19000
C2459       C  0.28068998  0.01011367  0.99441868    -0.11300
C2460       C  0.25555479  0.99639656  0.98998331     0.21300
C2461       C  0.22998203  0.98541664  0.99568398    -0.20700
C2462       C  0.22926527  0.98802702  0.00556308    -0.11500
C2463       C  0.25436184  0.99299410  0.97950554    -0.15700
C2464       C  0.27230815  0.00472293  0.97293324    -0.29500
C2465       C  0.25645474  0.00437427  0.02055282    -0.03800
C2466       C  0.23469748  0.99445235  0.02698933    -0.40300
H2467       H  0.29989228  0.02327227  0.00753436     0.12400
H2468       H  0.30123455  0.01869818  0.99037220     0.12100
H2469       H  0.21027365  0.97473587  0.99247122     0.11500
H2470       H  0.20913179  0.97909266  0.00957790     0.11800
H2471       H  0.23590657  0.98065127  0.97704206     0.14500
H2472       H  0.29042886  0.01749253  0.97499931     0.13300
H2473       H  0.27848464  0.01445973  0.02317063     0.10900
H2474       H  0.21239433  0.98419761  0.02478795     0.13000
C2475       C  0.03734814  0.00620935  0.94107544     0.19000
C2476       C  0.01275357  0.99955620  0.94825073    -0.19000
C2477       C  0.97448597  0.00127238  0.94703924    -0.11300
C2478       C  0.96006565  0.00987150  0.93860242     0.21300
C2479       C  0.98469253  0.01684971  0.93151443    -0.20700
C2480       C  0.02283213  0.01518497  0.93273037    -0.11500
C2481       C  0.91987191  0.01134075  0.93661578    -0.15700
C2482       C  0.89244766  0.00812768  0.94300369    -0.29500
C2483       C  0.07772148  0.00369732  0.94265789    -0.03800
C2484       C  0.10354971  0.00530237  0.93573883    -0.40300
H2485       H  0.02318252  0.99271070  0.95477935     0.12400
H2486       H  0.95662209  0.99548209  0.95264891     0.12100
H2487       H  0.97437084  0.02365458  0.92496362     0.11500
H2488       H  0.04049211  0.02115882  0.92712166     0.11800
H2489       H  0.91252815  0.01556011  0.92935898     0.14500
H2490       H  0.89838748  0.00453568  0.95038863     0.13300
H2491       H  0.08646542  0.99989661  0.94985680     0.10900
H2492       H  0.09586467  0.00853830  0.92843302     0.13000
C2493       C  0.45961644  0.00011695  0.93320072     0.19000
C2494       C  0.48482725  0.00686992  0.92619486    -0.19000
C2495       C  0.52290743  0.00666696  0.92792828    -0.11300
C2496       C  0.53653043  0.99947099  0.93672664     0.21300
C2497       C  0.51129197  0.99223885  0.94361920    -0.20700
C2498       C  0.47334062  0.99242373  0.94188371    -0.11500
C2499       C  0.57641550  0.99944389  0.93922574    -0.15700
C2500       C  0.60449706  0.00368444  0.93317184    -0.29500
C2501       C  0.41939896  0.00139085  0.93117601    -0.03800
C2502       C  0.39302583  0.00155425  0.93799500    -0.40300
H2503       H  0.47498013  0.01271304  0.91941038     0.12400
H2504       H  0.54115102  0.01247951  0.92240840     0.12100
H2505       H  0.52097417  0.98640289  0.95042139     0.11500
H2506       H  0.45510606  0.98635409  0.94735558     0.11800
H2507       H  0.58300482  0.99526493  0.94653661     0.14500
H2508       H  0.59946663  0.00725515  0.92574227     0.13300
H2509       H  0.41135853  0.00338795  0.92377615     0.10900
H2510       H  0.40033384  0.00059339  0.94546434     0.13000
C2511       C  0.15828165  0.00841375  0.86845330     0.19000
C2512       C  0.15585782  0.02514544  0.87490537    -0.19000
C2513       C  0.16663496  0.02244901  0.88436263    -0.11300
C2514       C  0.17940375  0.00282408  0.88754527     0.21300
C2515       C  0.18011095  0.98581268  0.88123090    -0.20700
C2516       C  0.16988762  0.98858417  0.87173003    -0.11500
C2517       C  0.19267387  0.99992411  0.89738327    -0.15700
C2518       C  0.21388872  0.01448999  0.90159189    -0.29500
C2519       C  0.14760402  0.01196611  0.85842371    -0.03800
C2520       C  0.16296465  0.00131205  0.85116782    -0.40300
H2521       H  0.14629392  0.04043013  0.87257448     0.12400
H2522       H  0.16495097  0.03567713  0.88919054     0.12100
H2523       H  0.18941420  0.97050495  0.88360162     0.11500
H2524       H  0.17074055  0.97516190  0.86700861     0.11800
H2525       H  0.18751530  0.98497938  0.90091145     0.14500
H2526       H  0.22181336  0.02858973  0.89770394     0.13300
H2527       H  0.12727808  0.02410989  0.85696465     0.10900
H2528       H  0.18467890  0.98992550  0.85250507     0.13000
C2529       C  0.07252163  0.10619127  0.82073674     0.19000
C2530       C  0.03875246  0.11669042  0.82194557    -0.19000
C2531       C  0.03732819  0.13862082  0.82167967    -0.11300
C2532       C  0.06992079  0.15038995  0.82047247     0.21300
C2533       C  0.10372668  0.13990929  0.81929070    -0.20700
C2534       C  0.10500288  0.11794814  0.81928296    -0.11500
C2535       C  0.06956408  0.17353958  0.82119452    -0.15700
C2536       C  0.04309209  0.18535842  0.81719738    -0.29500
C2537       C  0.07355509  0.08310238  0.82180140    -0.03800
C2538       C  0.09535025  0.07069385  0.81646335    -0.40300
H2539       H  0.01349700  0.10788587  0.82318289     0.12400
H2540       H  0.01102837  0.14637950  0.82280160     0.12100
H2541       H  0.12918153  0.14875039  0.81845508     0.11500
H2542       H  0.13150667  0.11020456  0.81853418     0.11800
H2543       H  0.09244300  0.18113087  0.82484602     0.14500
H2544       H  0.02216018  0.17812260  0.81272914     0.13300
H2545       H  0.05454792  0.07599510  0.82689910     0.10900
H2546       H  0.11186126  0.07735778  0.81071887     0.13000
C2547       C  0.71438671  0.25035368  0.81605631     0.19000
C2548       C  0.73871652  0.24254595  0.82297926    -0.19000
C2549       C  0.77692936  0.24388945  0.82168407    -0.11300
C2550       C  0.79158650  0.25329447  0.81342909     0.21300
C2551       C  0.76729171  0.26090810  0.80646062    -0.20700
C2552       C  0.72907068  0.25959215  0.80775973    -0.11500
C2553       C  0.83182801  0.25501173  0.81162058    -0.15700
C2554       C  0.85805849  0.25350766  0.81838352    -0.29500
C2555       C  0.67415836  0.24912181  0.81801396    -0.03800
C2556       C  0.64739934  0.25220039  0.81150047    -0.40300
H2557       H  0.72810245  0.23529731  0.82942584     0.12400
H2558       H  0.79462616  0.23728234  0.82710184     0.12100
H2559       H  0.77794538  0.26815727  0.80001842     0.11500
H2560       H  0.71145899  0.26618443  0.80232526     0.11800
H2561       H  0.84012417  0.25822748  0.80430935     0.14500
H2562       H  0.85075932  0.25110731  0.82580531     0.13300
H2563       H  0.66623775  0.24507037  0.82526775     0.10900
H2564       H  0.65405041  0.25537222  0.80410145     0.13000
C2565       C  0.21414868  0.25338298  0.81694870     0.19000
C2566       C  0.23819022  0.25586675  0.82470426    -0.19000
C2567       C  0.27643673  0.25657536  0.82333306    -0.11300
C2568       C  0.29144971  0.25463824  0.81412566     0.21300
C2569       C  0.26742520  0.25217376  0.80637409    -0.20700
C2570       C  0.22920732  0.25144238  0.80774349    -0.11500
C2571       C  0.33167207  0.25578551  0.81214236    -0.15700
C2572       C  0.35846926  0.25409529  0.81874824    -0.29500
C2573       C  0.17387478  0.25228437  0.81891253    -0.03800
C2574       C  0.14718147  0.25293707  0.81223688    -0.40300
H2575       H  0.22731699  0.25738491  0.83187536     0.12400
H2576       H  0.29379345  0.25896808  0.82948760     0.12100
H2577       H  0.27829981  0.25067449  0.79920215     0.11500
H2578       H  0.21196409  0.24908172  0.80157030     0.11800
H2579       H  0.33956329  0.25794048  0.80472367     0.14500
H2580       H  0.35187033  0.25140302  0.82618965     0.13300
H2581       H  0.16584535  0.25086972  0.82635759     0.10900
H2582       H  0.15380832  0.25477299  0.80474881     0.13000
C2583       C  0.56759626  0.10582891  0.82058205     0.19000
C2584       C  0.60075544  0.11734169  0.82105178    -0.19000
C2585       C  0.60004667  0.13932414  0.82113415    -0.11300
C2586       C  0.56635429  0.15015219  0.82048444     0.21300
C2587       C  0.53327517  0.13862135  0.81977553    -0.20700
C2588       C  0.53391253  0.11664348  0.81995669    -0.11500
C2589       C  0.56613175  0.17335673  0.82134310    -0.15700
C2590       C  0.54243746  0.18568794  0.81654109    -0.29500
C2591       C  0.56735441  0.08264342  0.82147754    -0.03800
C2592       C  0.59261278  0.07038315  0.81718201    -0.40300
H2593       H  0.62705523  0.10936536  0.82173651     0.12400
H2594       H  0.62582124  0.14790941  0.82179504     0.12100
H2595       H  0.50684124  0.14656591  0.81947669     0.11500
H2596       H  0.50803613  0.10804902  0.81968973     0.11800
H2597       H  0.58697494  0.18057752  0.82585202     0.14500
H2598       H  0.52386957  0.17886391  0.81131793     0.13300
H2599       H  0.54495789  0.07541329  0.82551278     0.10900
H2600       H  0.61297783  0.07732308  0.81240419     0.13000
C2601       C  0.88020359  0.25012170  0.00956529     0.19000
C2602       C  0.87369222  0.26899758  0.00468419    -0.19000
C2603       C  0.86797625  0.26908337  0.99482728    -0.11300
C2604       C  0.86923365  0.25023124  0.98957588     0.21300
C2605       C  0.87571228  0.23135364  0.99445031    -0.20700
C2606       C  0.88152349  0.23127049  0.00430145    -0.11500
C2607       C  0.86537140  0.24976399  0.97900793    -0.15700
C2608       C  0.87571722  0.26605499  0.97351155    -0.29500
C2609       C  0.88391205  0.25060720  0.02014858    -0.03800
C2610       C  0.87463131  0.23407650  0.02561939    -0.40300
H2611       H  0.87226048  0.28370923  0.00854306     0.12400
H2612       H  0.86212514  0.28392588  0.99139077     0.12100
H2613       H  0.87710188  0.21664405  0.99058764     0.11500
H2614       H  0.88747621  0.21641408  0.00770822     0.11800
H2615       H  0.85786798  0.23500202  0.97563172     0.14500
H2616       H  0.88642179  0.28021872  0.97680876     0.13300
H2617       H  0.89023671  0.26550869  0.02355811     0.10900
H2618       H  0.86500472  0.21969682  0.02230157     0.13000
C2619       C  0.81965359  0.15425238  0.93601316     0.19000
C2620       C  0.85212306  0.14216358  0.93591193    -0.19000
C2621       C  0.85003308  0.12019806  0.93587630    -0.11300
C2622       C  0.81558906  0.10995752  0.93619447     0.21300
C2623       C  0.78317026  0.12207673  0.93661541    -0.20700
C2624       C  0.78523740  0.14403078  0.93639322    -0.11500
C2625       C  0.81416702  0.08681114  0.93506464    -0.15700
C2626       C  0.78814864  0.07448581  0.93910636    -0.29500
C2627       C  0.82082051  0.17733222  0.93469191    -0.03800
C2628       C  0.84628414  0.18985057  0.93876306    -0.40300
H2629       H  0.87898393  0.14965695  0.93539478     0.12400
H2630       H  0.87535075  0.11115955  0.93542016     0.12100
H2631       H  0.75621330  0.11463154  0.93663793     0.11500
H2632       H  0.75987468  0.15307635  0.93634456     0.11800
H2633       H  0.83598981  0.07954782  0.93085765     0.14500
H2634       H  0.76818294  0.08107355  0.94406875     0.13300
H2635       H  0.79923948  0.18435659  0.93035789     0.10900
H2636       H  0.86593078  0.18341385  0.94381936     0.13000
C2637       C  0.94867751  0.26472721  0.86611212     0.19000
C2638       C  0.91278088  0.26301372  0.86983443    -0.19000
C2639       C  0.90701161  0.26235674  0.87969113    -0.11300
C2640       C  0.93710820  0.26377518  0.88600295     0.21300
C2641       C  0.97282754  0.26650005  0.88226805    -0.20700
C2642       C  0.97865339  0.26678658  0.87241467    -0.11500
C2643       C  0.93180673  0.26301798  0.89648912    -0.15700
C2644       C  0.90526580  0.25122401  0.90059060    -0.29500
C2645       C  0.95447830  0.26402968  0.85565542    -0.03800
C2646       C  0.98286669  0.25328635  0.85188347    -0.40300
H2647       H  0.88927702  0.26169010  0.86510598     0.12400
H2648       H  0.87896775  0.26096568  0.88235316     0.12100
H2649       H  0.99633264  0.26801239  0.88698557     0.11500
H2650       H  0.00658044  0.26869346  0.86972282     0.11800
H2651       H  0.95087270  0.27183641  0.90093077     0.14500
H2652       H  0.88769319  0.24137177  0.89619393     0.13300
H2653       H  0.93403823  0.27120227  0.85102464     0.10900
H2654       H  0.00147084  0.24480130  0.85657697     0.13000
C2655       C  0.37626086  0.23921278  0.00982160     0.19000
C2656       C  0.34724229  0.23472468  0.00351546    -0.19000
C2657       C  0.35114813  0.23844267  0.99374888    -0.11300
C2658       C  0.38451049  0.24653349  0.99007756     0.21300
C2659       C  0.41368067  0.25075602  0.99638001    -0.20700
C2660       C  0.40974915  0.24706884  0.00613947    -0.11500
C2661       C  0.38999396  0.25149296  0.97983658    -0.15700
C2662       C  0.36843924  0.24445803  0.97269209    -0.29500
C2663       C  0.37042511  0.23528224  0.02013471    -0.03800
C2664       C  0.38988013  0.24470615  0.02710440    -0.40300
H2665       H  0.32116260  0.22863490  0.00618007     0.12400
H2666       H  0.32773247  0.23533629  0.98919582     0.12100
H2667       H  0.43974314  0.25691571  0.99373619     0.11500
H2668       H  0.43312256  0.25018241  0.01071317     0.11800
H2669       H  0.41403647  0.26104957  0.97807080     0.14500
H2670       H  0.34536401  0.23396227  0.97406267     0.13300
H2671       H  0.34746096  0.22505934  0.02207736     0.10900
H2672       H  0.41152211  0.25596325  0.02543238     0.13000
C2673       C  0.59946016  0.26556737  0.93839381     0.19000
C2674       C  0.62238025  0.26322872  0.94638908    -0.19000
C2675       C  0.66076216  0.26150698  0.94534615    -0.11300
C2676       C  0.67703120  0.26235283  0.93623757     0.21300
C2677       C  0.65409806  0.26518366  0.92827608    -0.20700
C2678       C  0.61578789  0.26685663  0.92931906    -0.11500
C2679       C  0.71730783  0.25951573  0.93453059    -0.15700
C2680       C  0.74391446  0.25971411  0.94126398    -0.29500
C2681       C  0.55885137  0.26673093  0.93988042    -0.03800
C2682       C  0.53341981  0.26233203  0.93314356    -0.40300
H2683       H  0.61045793  0.26230640  0.95347267     0.12400
H2684       H  0.67720614  0.25909071  0.95166409     0.12100
H2685       H  0.66588339  0.26602377  0.92117580     0.11500
H2686       H  0.59926925  0.26929920  0.92300982     0.11800
H2687       H  0.72548111  0.25723841  0.92714415     0.14500
H2688       H  0.73725085  0.26259264  0.94868310     0.13300
H2689       H  0.54954353  0.27030132  0.94707029     0.10900
H2690       H  0.54180976  0.25777090  0.92601479     0.13000
C2691       C  0.17778733  0.25291029  0.93456837     0.19000
C2692       C  0.15292834  0.24444741  0.92792689    -0.19000
C2693       C  0.11474948  0.24569187  0.92942656    -0.11300
C2694       C  0.10067959  0.25573507  0.93758192     0.21300
C2695       C  0.12559010  0.26430105  0.94418943    -0.20700
C2696       C  0.16373559  0.26301257  0.94269888    -0.11500
C2697       C  0.06051570  0.25729108  0.93967368    -0.15700
C2698       C  0.03326203  0.25458832  0.93324229    -0.29500
C2699       C  0.21797277  0.25151606  0.93254410    -0.03800
C2700       C  0.24464535  0.25267100  0.93922289    -0.40300
H2701       H  0.16312119  0.23663642  0.92158648     0.12400
H2702       H  0.09662909  0.23850241  0.92425762     0.12100
H2703       H  0.11547437  0.27219546  0.95051675     0.11500
H2704       H  0.18194388  0.27025894  0.94783822     0.11800
H2705       H  0.05314104  0.26168409  0.94691625     0.14500
H2706       H  0.03953430  0.25106820  0.92585612     0.13300
H2707       H  0.22580843  0.24868419  0.92517262     0.10900
H2708       H  0.23759067  0.25432974  0.94670347     0.13000
C2709       C  0.32243567  0.15094309  0.93142199     0.19000
C2710       C  0.28820772  0.14068779  0.93234319    -0.19000
C2711       C  0.28634831  0.11873839  0.93263518    -0.11300
C2712       C  0.31873173  0.10668821  0.93177070     0.21300
C2713       C  0.35295315  0.11694970  0.93085838    -0.20700
C2714       C  0.35489812  0.13889576  0.93080809    -0.11500
C2715       C  0.31725612  0.08352124  0.93092999    -0.15700
C2716       C  0.29299772  0.07150559  0.93578086    -0.29500
C2717       C  0.32336177  0.17409894  0.93040979    -0.03800
C2718       C  0.35025863  0.18604472  0.93417399    -0.40300
H2719       H  0.26284236  0.14969522  0.93273669     0.12400
H2720       H  0.25950471  0.11122527  0.93312733     0.12100
H2721       H  0.37818306  0.10794088  0.93006699     0.11500
H2722       H  0.38159173  0.14640113  0.92989707     0.11800
H2723       H  0.33753264  0.07604865  0.92630822     0.14500
H2724       H  0.27476782  0.07853096  0.94105443     0.13300
H2725       H  0.30031925  0.18163929  0.92681716     0.10900
H2726       H  0.37140675  0.17892405  0.93860395     0.13000
C2727       C  0.43838509  0.26992397  0.88542236     0.19000
C2728       C  0.47415802  0.27234661  0.88169365    -0.19000
C2729       C  0.48010332  0.27195985  0.87184698    -0.11300
C2730       C  0.45019388  0.26956048  0.86555342     0.21300
C2731       C  0.41418043  0.26847760  0.86925244    -0.20700
C2732       C  0.40829135  0.26845054  0.87910953    -0.11500
C2733       C  0.45624770  0.26767553  0.85514395    -0.15700
C2734       C  0.48400762  0.25594669  0.85165308    -0.29500
C2735       C  0.43314080  0.26863375  0.89589627    -0.03800
C2736       C  0.40809988  0.25554297  0.89977766    -0.40300
H2737       H  0.49764876  0.27384590  0.88641546     0.12400
H2738       H  0.50810477  0.27341124  0.86914939     0.12100
H2739       H  0.39072451  0.26694659  0.86451994     0.11500
H2740       H  0.38023370  0.26721723  0.88178536     0.11800
H2741       H  0.43645546  0.27486105  0.85033340     0.14500
H2742       H  0.50196132  0.24756114  0.85654701     0.13300
H2743       H  0.45157119  0.27755147  0.90047025     0.10900
H2744       H  0.39146080  0.24562839  0.89516824     0.13000
C2745       C  0.69968680  0.85685405  0.81139132     0.19000
C2746       C  0.66586361  0.86762130  0.81104613    -0.19000
C2747       C  0.66508712  0.88959295  0.81111770    -0.11300
C2748       C  0.69825448  0.90110741  0.81124551     0.21300
C2749       C  0.73208618  0.89036467  0.81141980    -0.20700
C2750       C  0.73284053  0.86840249  0.81163514    -0.11500
C2751       C  0.69818722  0.92424531  0.81042349    -0.15700
C2752       C  0.67491113  0.93652150  0.81541111    -0.29500
C2753       C  0.69981109  0.83364314  0.81080771    -0.03800
C2754       C  0.72397357  0.82158260  0.81559949    -0.40300
H2755       H  0.64003063  0.85899675  0.81070439     0.12400
H2756       H  0.63869385  0.89757846  0.81074215     0.12100
H2757       H  0.75794420  0.89900389  0.81136405     0.11500
H2758       H  0.75931854  0.86047090  0.81165510     0.11800
H2759       H  0.71887578  0.93144649  0.80581043     0.14500
H2760       H  0.65656097  0.92966041  0.82072296     0.13300
H2761       H  0.67836955  0.82619371  0.80656738     0.10900
H2762       H  0.74325114  0.82868164  0.82057194     0.13000
C2763       C  0.20244817  0.85759751  0.80972116     0.19000
C2764       C  0.16916680  0.86875198  0.80911021    -0.19000
C2765       C  0.16915134  0.89066682  0.80949840    -0.11300
C2766       C  0.20262816  0.90179413  0.81023664     0.21300
C2767       C  0.23599998  0.89064487  0.81078029    -0.20700
C2768       C  0.23591466  0.86866438  0.81066041    -0.11500
C2769       C  0.20331746  0.92497029  0.80964044    -0.15700
C2770       C  0.17717862  0.93695390  0.81371734    -0.29500
C2771       C  0.20181039  0.83452934  0.80866695    -0.03800
C2772       C  0.22256890  0.82175002  0.81405703    -0.40300
H2773       H  0.14316743  0.86047159  0.80827082     0.12400
H2774       H  0.14310762  0.89891320  0.80883487     0.12100
H2775       H  0.26211390  0.89896639  0.81122623     0.11500
H2776       H  0.26201105  0.86035376  0.81094230     0.11800
H2777       H  0.22614208  0.93239213  0.80584134     0.14500
H2778       H  0.15632564  0.92988521  0.81831342     0.13300
H2779       H  0.18246162  0.82783978  0.80358788     0.10900
H2780       H  0.23947911  0.82822717  0.81972895     0.13000
C2781       C  0.97400962  0.74802159  0.81610800     0.19000
C2782       C  0.99971312  0.73901233  0.82236147    -0.19000
C2783       C  0.03760994  0.74034846  0.82051140    -0.11300
C2784       C  0.05066744  0.75100306  0.81238238     0.21300
C2785       C  0.02498865  0.75961792  0.80601150    -0.20700
C2786       C  0.98703826  0.75830087  0.80786549    -0.11500
C2787       C  0.09069152  0.75330250  0.81025464    -0.15700
C2788       C  0.11719749  0.75243305  0.81695998    -0.29500
C2789       C  0.93422305  0.74705697  0.81872090    -0.03800
C2790       C  0.90622015  0.75065714  0.81263435    -0.40300
H2791       H  0.99042779  0.73090205  0.82873118     0.12400
H2792       H  0.05639855  0.73285608  0.82542948     0.12100
H2793       H  0.03436548  0.76781271  0.79967327     0.11500
H2794       H  0.96833822  0.76582676  0.80294317     0.11800
H2795       H  0.09843177  0.75677879  0.80292818     0.14500
H2796       H  0.10997472  0.75007800  0.82439316     0.13300
H2797       H  0.92773926  0.74279191  0.82604289     0.10900
H2798       H  0.91157252  0.75392124  0.80517326     0.13000
C2799       C  0.55066448  0.75407886  0.81699587     0.19000
C2800       C  0.52726563  0.75071849  0.80918412    -0.19000
C2801       C  0.48903195  0.74943905  0.81039298    -0.11300
C2802       C  0.47317422  0.75176152  0.81948321     0.21300
C2803       C  0.49654957  0.75484712  0.82733825    -0.20700
C2804       C  0.53493996  0.75610818  0.82612777    -0.11500
C2805       C  0.43263553  0.75045158  0.82110702    -0.15700
C2806       C  0.40710851  0.75330179  0.81423793    -0.29500
C2807       C  0.59092912  0.75588295  0.81508730    -0.03800
C2808       C  0.61786759  0.75533727  0.82170863    -0.40300
H2809       H  0.53864827  0.74896767  0.80207622     0.12400
H2810       H  0.47227144  0.74632236  0.80419227     0.12100
H2811       H  0.48501702  0.75653848  0.83443195     0.11500
H2812       H  0.55185215  0.75899128  0.83232370     0.11800
H2813       H  0.42346394  0.74745560  0.82836766     0.14500
H2814       H  0.41534666  0.75725100  0.80701839     0.13300
H2815       H  0.59879416  0.75738981  0.80763477     0.10900
H2816       H  0.61140907  0.75339071  0.82920616     0.13000
C2817       C  0.63618478  0.74123061  0.01214146     0.19000
C2818       C  0.61067430  0.73330409  0.00553529    -0.19000
C2819       C  0.61394878  0.73802786  0.99584159    -0.11300
C2820       C  0.64323431  0.75069966  0.99250163     0.21300
C2821       C  0.66862619  0.75871529  0.99910646    -0.20700
C2822       C  0.66539489  0.75397394  0.00879208    -0.11500
C2823       C  0.64874604  0.75589678  0.98225795    -0.15700
C2824       C  0.63225270  0.74563965  0.97504020    -0.29500
C2825       C  0.63072678  0.73599580  0.02239443    -0.03800
C2826       C  0.64900861  0.74535239  0.02957092    -0.40300
H2827       H  0.58779637  0.72355075  0.00789566     0.12400
H2828       H  0.59315702  0.73187959  0.99108860     0.12100
H2829       H  0.69145315  0.76850933  0.99674630     0.11500
H2830       H  0.68618705  0.76022775  0.01350816     0.11800
H2831       H  0.66887683  0.76807556  0.98057241     0.14500
H2832       H  0.61300185  0.73291379  0.97641314     0.13300
H2833       H  0.60928096  0.72460455  0.02413739     0.10900
H2834       H  0.66976002  0.75726499  0.02818091     0.13000
C2835       C  0.68949537  0.90216558  0.94189663     0.19000
C2836       C  0.72345851  0.89216578  0.94357856    -0.19000
C2837       C  0.72504238  0.87031851  0.94450684    -0.11300
C2838       C  0.69299171  0.85809175  0.94348874     0.21300
C2839       C  0.65915306  0.86803119  0.94156249    -0.20700
C2840       C  0.65737329  0.88994993  0.94092278    -0.11500
C2841       C  0.69521400  0.83514983  0.94503293    -0.15700
C2842       C  0.67725019  0.82127335  0.93952296    -0.29500
C2843       C  0.68649701  0.92531741  0.94216966    -0.03800
C2844       C  0.71184969  0.93816628  0.93822157    -0.40300
H2845       H  0.74845877  0.90128894  0.94458645     0.12400
H2846       H  0.75130634  0.86293253  0.94607939     0.12100
H2847       H  0.63393513  0.85893229  0.94092085     0.11500
H2848       H  0.63084894  0.89741472  0.93976723     0.11800
H2849       H  0.71414058  0.82947719  0.95045674     0.14500
H2850       H  0.66115020  0.82675431  0.93349103     0.13300
H2851       H  0.66250370  0.93201623  0.94573300     0.10900
H2852       H  0.73413727  0.93177893  0.93389790     0.13000
C2853       C  0.71209090  0.76923573  0.86810187     0.19000
C2854       C  0.67581283  0.77040206  0.87163286    -0.19000
C2855       C  0.66911966  0.76981734  0.88145507    -0.11300
C2856       C  0.69874709  0.76851523  0.88790083     0.21300
C2857       C  0.73506642  0.76865742  0.88438867    -0.20700
C2858       C  0.74173410  0.76882343  0.87457570    -0.11500
C2859       C  0.69237575  0.76683992  0.89829891    -0.15700
C2860       C  0.66533774  0.75465695  0.90189721    -0.29500
C2861       C  0.71850858  0.76808801  0.85766965    -0.03800
C2862       C  0.74531079  0.75589288  0.85400526    -0.40300
H2863       H  0.65261028  0.77108922  0.86678094     0.12400
H2864       H  0.64082707  0.77034101  0.88401054     0.12100
H2865       H  0.75827133  0.76800762  0.88924216     0.11500
H2866       H  0.77008338  0.76859185  0.87205894     0.11800
H2867       H  0.71160163  0.77467214  0.90306050     0.14500
H2868       H  0.64781665  0.74570332  0.89710416     0.13300
H2869       H  0.69967812  0.77632226  0.85294811     0.10900
H2870       H  0.76231050  0.74653200  0.85875697     0.13000
C2871       C  0.13392069  0.74232069  0.01309010     0.19000
C2872       C  0.10440991  0.73750699  0.00696429    -0.19000
C2873       C  0.10702401  0.74139090  0.99716213    -0.11300
C2874       C  0.13954757  0.75003057  0.99325290     0.21300
C2875       C  0.16912891  0.75468974  0.99937850    -0.20700
C2876       C  0.16650782  0.75081955  0.00916417    -0.11500
C2877       C  0.14411776  0.75481109  0.98293066    -0.15700
C2878       C  0.12209838  0.74776220  0.97585469    -0.29500
C2879       C  0.12958030  0.73792768  0.02345550    -0.03800
C2880       C  0.15018090  0.74682598  0.03037545    -0.40300
H2881       H  0.07898187  0.73091464  0.00979559     0.12400
H2882       H  0.08336577  0.73784805  0.99275867     0.12100
H2883       H  0.19461126  0.76126193  0.99656737     0.11500
H2884       H  0.19025613  0.75425979  0.01355634     0.11800
H2885       H  0.16826941  0.76414129  0.98102338     0.14500
H2886       H  0.09853285  0.73770986  0.97734692     0.13300
H2887       H  0.10689704  0.72761267  0.02551005     0.10900
H2888       H  0.17174429  0.75807701  0.02863614     0.13000
C2889       C  0.20905427  0.89965541  0.94076453     0.19000
C2890       C  0.22803918  0.88606997  0.94687544    -0.19000
C2891       C  0.22566712  0.86436110  0.94569405    -0.11300
C2892       C  0.20319026  0.85567409  0.93852409     0.21300
C2893       C  0.18501030  0.86928575  0.93221355    -0.20700
C2894       C  0.18780080  0.89112063  0.93332653    -0.11500
C2895       C  0.19799448  0.83255508  0.93761903    -0.15700
C2896       C  0.20066019  0.81974577  0.94521072    -0.29500
C2897       C  0.21044207  0.92250196  0.94273666    -0.03800
C2898       C  0.20853069  0.93729295  0.93591526    -0.40300
H2899       H  0.24483487  0.89229894  0.95259652     0.12400
H2900       H  0.24152047  0.85448731  0.95043775     0.12100
H2901       H  0.16777560  0.86301218  0.92659335     0.11500
H2902       H  0.17234973  0.90122285  0.92858369     0.11800
H2903       H  0.19053370  0.82610355  0.93072301     0.14500
H2904       H  0.20601531  0.82635033  0.95219649     0.13300
H2905       H  0.21458785  0.92726724  0.95009187     0.10900
H2906       H  0.20688945  0.93274531  0.92847356     0.13000
C2907       C  0.86119253  0.76554347  0.93780242     0.19000
C2908       C  0.88551539  0.77300407  0.94481955    -0.19000
C2909       C  0.92382026  0.77196219  0.94353045    -0.11300
C2910       C  0.93880796  0.76325229  0.93516849     0.21300
C2911       C  0.91455821  0.75623769  0.92804635    -0.20700
C2912       C  0.87619805  0.75724906  0.92933826    -0.11500
C2913       C  0.97934269  0.76136233  0.93351533    -0.15700
C2914       C  0.00497606  0.76177526  0.94048219    -0.29500
C2915       C  0.82076739  0.76612639  0.93987781    -0.03800
C2916       C  0.79371917  0.76083154  0.93371987    -0.40300
H2917       H  0.87483068  0.77960942  0.95138558     0.12400
H2918       H  0.94136494  0.77816924  0.94907746     0.12100
H2919       H  0.92535442  0.74959560  0.92150005     0.11500
H2920       H  0.85879999  0.75118689  0.92373878     0.11800
H2921       H  0.98829064  0.75854738  0.92622633     0.14500
H2922       H  0.99679848  0.76358523  0.94787425     0.13300
H2923       H  0.81290629  0.77099723  0.94702324     0.10900
H2924       H  0.80007392  0.75630760  0.92646125     0.13000
C2925       C  0.43829964  0.74740423  0.93974896     0.19000
C2926       C  0.41331680  0.74138763  0.93262160    -0.19000
C2927       C  0.37533305  0.74093804  0.93439598    -0.11300
C2928       C  0.36130034  0.74684746  0.94335682     0.21300
C2929       C  0.38629976  0.75249098  0.95055767    -0.20700
C2930       C  0.42441981  0.75287571  0.94878669    -0.11500
C2931       C  0.32099657  0.74761820  0.94546305    -0.15700
C2932       C  0.29467347  0.74852025  0.93870070    -0.29500
C2933       C  0.47823568  0.74805341  0.93725361    -0.03800
C2934       C  0.50622897  0.74928847  0.94355118    -0.40300
H2935       H  0.42324777  0.73693626  0.92561618     0.12400
H2936       H  0.35736365  0.73580577  0.92872010     0.12100
H2937       H  0.37624533  0.75703743  0.95753744     0.11500
H2938       H  0.44255980  0.75787093  0.95445333     0.11800
H2939       H  0.31283096  0.74878000  0.95290476     0.14500
H2940       H  0.30201358  0.74832493  0.93120894     0.13300
H2941       H  0.48490622  0.74668465  0.92972174     0.10900
H2942       H  0.50088652  0.74992429  0.95114919     0.13000
C2943       C  0.22553506  0.74715723  0.86874637     0.19000
C2944       C  0.24849190  0.74817974  0.87678506    -0.19000
C2945       C  0.23325955  0.74862296  0.88598053    -0.11300
C2946       C  0.19465975  0.74774382  0.88729466     0.21300
C2947       C  0.17184687  0.74614933  0.87926514    -0.20700
C2948       C  0.18700711  0.74599126  0.87009218    -0.11500
C2949       C  0.17710376  0.74762578  0.89688579    -0.15700
C2950       C  0.19182065  0.75707386  0.90457263    -0.29500
C2951       C  0.24246490  0.74640444  0.85907977    -0.03800
C2952       C  0.22536804  0.75387211  0.85127242    -0.40300
H2953       H  0.27828672  0.74872634  0.87594097     0.12400
H2954       H  0.25174116  0.74920531  0.89202122     0.12100
H2955       H  0.14208448  0.74510285  0.88009375     0.11500
H2956       H  0.16850358  0.74446836  0.86409059     0.11800
H2957       H  0.14997914  0.74033321  0.89750922     0.14500
H2958       H  0.21792952  0.76544432  0.90397443     0.13300
H2959       H  0.27036809  0.74021453  0.85842757     0.10900
H2960       H  0.19873399  0.76160703  0.85194305     0.13000
C2961       C  0.94730090  0.35600535  0.80814624     0.19000
C2962       C  0.91598121  0.36764680  0.80552342    -0.19000
C2963       C  0.91760372  0.38957350  0.80503171    -0.11300
C2964       C  0.95092177  0.40009351  0.80688769     0.21300
C2965       C  0.98231741  0.38854044  0.80943599    -0.20700
C2966       C  0.98044759  0.36665617  0.81019543    -0.11500
C2967       C  0.95376565  0.42301398  0.80562813    -0.15700
C2968       C  0.93276733  0.43631157  0.81070033    -0.29500
C2969       C  0.94555592  0.33277804  0.80784235    -0.03800
C2970       C  0.96537951  0.32026004  0.81361964    -0.40300
H2971       H  0.89031870  0.35973030  0.80378609     0.12400
H2972       H  0.89325695  0.39828369  0.80291006     0.12100
H2973       H  0.00830664  0.39647578  0.81079472     0.11500
H2974       H  0.00527898  0.35806664  0.81199940     0.11800
H2975       H  0.97488785  0.42905937  0.80081517     0.14500
H2976       H  0.91410803  0.43023109  0.81613988     0.13300
H2977       H  0.92671028  0.32571063  0.80274098     0.10900
H2978       H  0.98184597  0.32696825  0.81931722     0.13000
C2979       C  0.82679760  0.65030672  0.82070364     0.19000
C2980       C  0.86122176  0.64031416  0.81982717    -0.19000
C2981       C  0.86329230  0.61849739  0.81872043    -0.11300
C2982       C  0.83088199  0.60626336  0.81871023     0.21300
C2983       C  0.79647014  0.61626543  0.81962297    -0.20700
C2984       C  0.79436290  0.63811950  0.82049422    -0.11500
C2985       C  0.83225982  0.58300487  0.81867908    -0.15700
C2986       C  0.85806708  0.57180890  0.81397365    -0.29500
C2987       C  0.82550673  0.67327452  0.82236812    -0.03800
C2988       C  0.79958447  0.68570231  0.81848456    -0.40300
H2989       H  0.88656113  0.64941718  0.82005747     0.12400
H2990       H  0.89024605  0.61116744  0.81826577     0.12100
H2991       H  0.77117674  0.60710249  0.81976532     0.11500
H2992       H  0.76749044  0.64538774  0.82134881     0.11800
H2993       H  0.81053958  0.57473375  0.82254964     0.14500
H2994       H  0.87798808  0.57963525  0.80936243     0.13300
H2995       H  0.84785678  0.68035623  0.82642253     0.10900
H2996       H  0.77940687  0.67912427  0.81360152     0.13000
C2997       C  0.45084080  0.40074461  0.80773233     0.19000
C2998       C  0.41618425  0.39091334  0.80871395    -0.19000
C2999       C  0.41369983  0.36899317  0.80920964    -0.11300
C3000       C  0.44580973  0.35664410  0.80902661     0.21300
C3001       C  0.48050132  0.36653598  0.80829808    -0.20700
C3002       C  0.48290928  0.38839634  0.80751566    -0.11500
C3003       C  0.44254033  0.33347576  0.80874124    -0.15700
C3004       C  0.46620529  0.32074634  0.81331121    -0.29500
C3005       C  0.45390803  0.42367135  0.80619467    -0.03800
C3006       C  0.43388297  0.43759289  0.81120021    -0.40300
H3007       H  0.39100594  0.40011477  0.80871080     0.12400
H3008       H  0.38668560  0.36164136  0.80964893     0.12100
H3009       H  0.50563253  0.35732988  0.80792780     0.11500
H3010       H  0.50982944  0.39568967  0.80666237     0.11800
H3011       H  0.41968371  0.32670373  0.80476735     0.14500
H3012       H  0.48696358  0.32732600  0.81803092     0.13300
H3013       H  0.47428113  0.42927870  0.80106532     0.10900
H3014       H  0.41608481  0.43220981  0.81696828     0.13000
C3015       C  0.61136202  0.50393535  0.80852671     0.19000
C3016       C  0.63613682  0.49459698  0.80206722    -0.19000
C3017       C  0.67433127  0.49672160  0.80325418    -0.11300
C3018       C  0.68836329  0.50845678  0.81091061     0.21300
C3019       C  0.66356394  0.51820784  0.81721442    -0.20700
C3020       C  0.62547072  0.51609715  0.81602734    -0.11500
C3021       C  0.72831820  0.50981208  0.81306143    -0.15700
C3022       C  0.75585653  0.50575474  0.80684374    -0.29500
C3023       C  0.57114025  0.50118021  0.80698949    -0.03800
C3024       C  0.54505218  0.50406264  0.81376601    -0.40300
H3025       H  0.62589486  0.48529625  0.79617538     0.12400
H3026       H  0.69253232  0.48867059  0.79834199     0.12100
H3027       H  0.67373320  0.52742857  0.82314085     0.11500
H3028       H  0.60737896  0.52417249  0.82095398     0.11800
H3029       H  0.73538006  0.51469008  0.82025042     0.14500
H3030       H  0.75010329  0.50218270  0.79944049     0.13300
H3031       H  0.56276285  0.49619030  0.79991452     0.10900
H3032       H  0.55260652  0.50815507  0.82099981     0.13000
C3033       C  0.11123250  0.50121835  0.81066801     0.19000
C3034       C  0.13529804  0.49548899  0.80322220    -0.19000
C3035       C  0.17363051  0.49612066  0.80443832    -0.11300
C3036       C  0.18869443  0.50270736  0.81315050     0.21300
C3037       C  0.16465058  0.50844361  0.82058593    -0.20700
C3038       C  0.12635097  0.50784372  0.81936792    -0.11500
C3039       C  0.22905418  0.50354494  0.81495050    -0.15700
C3040       C  0.25553630  0.50386726  0.80814687    -0.29500
C3041       C  0.07081310  0.50037059  0.80889991    -0.03800
C3042       C  0.04419507  0.50141717  0.81567141    -0.40300
H3043       H  0.12437804  0.49032147  0.79643731     0.12400
H3044       H  0.19109957  0.49114557  0.79859681     0.12100
H3045       H  0.17557519  0.51361754  0.82736895     0.11500
H3046       H  0.10900157  0.51283547  0.82522363     0.11800
H3047       H  0.23723120  0.50488595  0.82236889     0.14500
H3048       H  0.24844183  0.50330951  0.80065331     0.13300
H3049       H  0.06263543  0.49830706  0.80151567     0.10900
H3050       H  0.05108182  0.50305249  0.82314013     0.13000
C3051       C  0.32463083  0.65147300  0.81868080     0.19000
C3052       C  0.35904703  0.64129094  0.81873454    -0.19000
C3053       C  0.36123938  0.61946885  0.81763683    -0.11300
C3054       C  0.32887099  0.60739220  0.81672481     0.21300
C3055       C  0.29444808  0.61757575  0.81665435    -0.20700
C3056       C  0.29231993  0.63946004  0.81748314    -0.11500
C3057       C  0.33009223  0.58411850  0.81688545    -0.15700
C3058       C  0.35659570  0.57276284  0.81252550    -0.29500
C3059       C  0.32299238  0.67436547  0.82058592    -0.03800
C3060       C  0.29899683  0.68725688  0.81622116    -0.40300
H3061       H  0.38425920  0.65023950  0.81973577     0.12400
H3062       H  0.38807772  0.61196990  0.81794001     0.12100
H3063       H  0.26913128  0.60852642  0.81609392     0.11500
H3064       H  0.26537141  0.64686424  0.81759856     0.11800
H3065       H  0.30795226  0.57600218  0.82066253     0.14500
H3066       H  0.37698485  0.58045935  0.80800373     0.13300
H3067       H  0.34353204  0.68102015  0.82535723     0.10900
H3068       H  0.28095407  0.68122325  0.81068519     0.13000
C3069       C  0.02501728  0.49817170  0.00738085     0.19000
C3070       C  0.04935991  0.50958225  0.00148058    -0.19000
C3071       C  0.04649882  0.50868555  0.99155385    -0.11300
C3072       C  0.01892580  0.49633209  0.98725036     0.21300
C3073       C  0.99482209  0.48475149  0.99314625    -0.20700
C3074       C  0.99768506  0.48564595  0.00307730    -0.11500
C3075       C  0.01377175  0.49502056  0.97672957    -0.15700
C3076       C  0.03111798  0.50721430  0.97020720    -0.29500
C3077       C  0.02976181  0.49987186  0.01790140    -0.03800
C3078       C  0.00968399  0.48949391  0.02455748    -0.40300
H3079       H  0.07086630  0.51927462  0.00456915     0.12400
H3080       H  0.06611316  0.51763792  0.98737196     0.12100
H3081       H  0.97336259  0.47503779  0.99005125     0.11500
H3082       H  0.97830337  0.47653263  0.00725725     0.11800
H3083       H  0.99328401  0.48379009  0.97424191     0.14500
H3084       H  0.05121698  0.51893398  0.97232816     0.13300
H3085       H  0.05191784  0.51013059  0.02030287     0.10900
H3086       H  0.98766726  0.47882009  0.02257138     0.13000
C3087       C  0.95311582  0.40452872  0.93757291     0.19000
C3088       C  0.98703190  0.39377062  0.93758191    -0.19000
C3089       C  0.98767322  0.37180620  0.93790514    -0.11300
C3090       C  0.95453999  0.36028646  0.93795117     0.21300
C3091       C  0.92066417  0.37105598  0.93764816    -0.20700
C3092       C  0.92001464  0.39300625  0.93758385    -0.11500
C3093       C  0.95576180  0.33724279  0.93927100    -0.15700
C3094       C  0.93162060  0.32410947  0.93509269    -0.29500
C3095       C  0.95151647  0.42763942  0.93849198    -0.03800
C3096       C  0.97541371  0.44062133  0.93408312    -0.40300
H3097       H  0.01294809  0.40232098  0.93778903     0.12400
H3098       H  0.01404642  0.36378638  0.93826620     0.12100
H3099       H  0.89469553  0.36255872  0.93791200     0.11500
H3100       H  0.89360735  0.40103327  0.93769639     0.11800
H3101       H  0.97742484  0.33088301  0.94378267     0.14500
H3102       H  0.91195112  0.33006043  0.92991990     0.13300
H3103       H  0.92919238  0.43423188  0.94275166     0.10900
H3104       H  0.99566709  0.43443319  0.92908698     0.13000
C3105       C  0.07704648  0.65679847  0.93049004     0.19000
C3106       C  0.04256897  0.64668690  0.93002964    -0.19000
C3107       C  0.04044147  0.62472117  0.92993020    -0.11300
C3108       C  0.07291450  0.61262621  0.92998586     0.21300
C3109       C  0.10735399  0.62275890  0.93036433    -0.20700
C3110       C  0.10943728  0.64465701  0.93075572    -0.11500
C3111       C  0.07179016  0.58957971  0.92878981    -0.15700
C3112       C  0.04729757  0.57711870  0.93330853    -0.29500
C3113       C  0.07899791  0.67999230  0.93010962    -0.03800
C3114       C  0.10253421  0.69097811  0.93556317    -0.40300
H3115       H  0.01732466  0.65580933  0.92972091     0.12400
H3116       H  0.01359383  0.61722603  0.92943453     0.12100
H3117       H  0.13269262  0.61368833  0.93028808     0.11500
H3118       H  0.13638518  0.65211746  0.93091776     0.11800
H3119       H  0.09309114  0.58250367  0.92434568     0.14500
H3120       H  0.02821070  0.58367917  0.93850653     0.13300
H3121       H  0.05974525  0.68825050  0.92550615     0.10900
H3122       H  0.11920744  0.68292773  0.94085532     0.13000
C3123       C  0.94853418  0.49268569  0.86293576     0.19000
C3124       C  0.98455439  0.49435672  0.86652509    -0.19000
C3125       C  0.99063220  0.49542912  0.87635432    -0.11300
C3126       C  0.96074690  0.49446698  0.88280696     0.21300
C3127       C  0.92488602  0.49167717  0.87923459    -0.20700
C3128       C  0.91873541  0.49100520  0.86939203    -0.11500
C3129       C  0.96649046  0.49614303  0.89326467    -0.15700
C3130       C  0.99237589  0.50892984  0.89696735    -0.29500
C3131       C  0.94268945  0.49293435  0.85245334    -0.03800
C3132       C  0.91378842  0.50297483  0.84855591    -0.40300
H3133       H  0.00796584  0.49536241  0.86170237     0.12400
H3134       H  0.01875701  0.49688808  0.87889672     0.12100
H3135       H  0.90151338  0.49051608  0.88406394     0.11500
H3136       H  0.89070137  0.48909659  0.86683988     0.11800
H3137       H  0.94816495  0.48740715  0.89798542     0.14500
H3138       H  0.00898362  0.51866258  0.89223013     0.13300
H3139       H  0.96377341  0.48613449  0.84786521     0.10900
H3140       H  0.89434420  0.51111788  0.85317312     0.13000
C3141       C  0.52664461  0.49156658  0.00704034     0.19000
C3142       C  0.54482635  0.50566675  0.00087809    -0.19000
C3143       C  0.54156626  0.50390596  0.99097552    -0.11300
C3144       C  0.52022861  0.48772918  0.98691042     0.21300
C3145       C  0.50235273  0.47344529  0.99307288    -0.20700
C3146       C  0.50554908  0.47525265  0.00300832    -0.11500
C3147       C  0.51414627  0.48585619  0.97639212    -0.15700
C3148       C  0.53369823  0.49633285  0.96964902    -0.29500
C3149       C  0.53161820  0.49436812  0.01753466    -0.03800
C3150       C  0.51109883  0.48509752  0.02445300    -0.40300
H3151       H  0.56137448  0.51836555  0.00374871     0.12400
H3152       H  0.55524323  0.51558869  0.98661713     0.12100
H3153       H  0.48568543  0.46082176  0.99018327     0.11500
H3154       H  0.49170826  0.46375292  0.00744374     0.11800
H3155       H  0.49180328  0.47559966  0.97411006     0.14500
H3156       H  0.55674443  0.50630620  0.97162025     0.13300
H3157       H  0.55359364  0.50502685  0.01967484     0.10900
H3158       H  0.48854438  0.47459111  0.02265482     0.13000
C3159       C  0.42676723  0.35714772  0.93165309     0.19000
C3160       C  0.45493121  0.36794096  0.92675850    -0.19000
C3161       C  0.45968164  0.38964153  0.92797830    -0.11300
C3162       C  0.43591058  0.40100238  0.93405028     0.21300
C3163       C  0.40670155  0.39030968  0.93856455    -0.20700
C3164       C  0.40198480  0.36869154  0.93734455    -0.11500
C3165       C  0.44165135  0.42359385  0.93637111    -0.15700
C3166       C  0.46184735  0.43707839  0.93107250    -0.29500
C3167       C  0.42519012  0.33379602  0.93118748    -0.03800
C3168       C  0.41475415  0.32226481  0.93877689    -0.40300
H3169       H  0.47431191  0.35941248  0.92231192     0.12400
H3170       H  0.48282423  0.39718030  0.92445783     0.12100
H3171       H  0.38774145  0.39867190  0.94319563     0.11500
H3172       H  0.37920501  0.36101516  0.94098023     0.11800
H3173       H  0.42761990  0.42955591  0.94267606     0.14500
H3174       H  0.47403152  0.43206605  0.92437906     0.13300
H3175       H  0.43676338  0.32597008  0.92497945     0.10900
H3176       H  0.40659287  0.33014277  0.94531246     0.13000
C3177       C  0.79905542  0.50406543  0.93430633     0.19000
C3178       C  0.77395893  0.50826303  0.94171628    -0.19000
C3179       C  0.73587818  0.50755909  0.94013624    -0.11300
C3180       C  0.72206987  0.50239415  0.93109029     0.21300
C3181       C  0.74711853  0.49824866  0.92366381    -0.20700
C3182       C  0.78525097  0.49890934  0.92524836    -0.11500
C3183       C  0.68194513  0.50249642  0.92897720    -0.15700
C3184       C  0.65526692  0.49992118  0.93561838    -0.29500
C3185       C  0.83914216  0.50430631  0.93650610    -0.03800
C3186       C  0.86634209  0.50565995  0.92993473    -0.40300
H3187       H  0.78387570  0.51227414  0.94875951     0.12400
H3188       H  0.71751853  0.51152426  0.94596177     0.12100
H3189       H  0.73711860  0.49434064  0.91661675     0.11500
H3190       H  0.80356401  0.49502974  0.91940614     0.11800
H3191       H  0.67414999  0.50493236  0.92158628     0.14500
H3192       H  0.66235239  0.49645628  0.94295751     0.13300
H3193       H  0.84651632  0.50345693  0.94399737     0.10900
H3194       H  0.85997464  0.50738909  0.92243215     0.13000
C3195       C  0.22217292  0.51355166  0.93288667     0.19000
C3196       C  0.24626016  0.51162682  0.92507522    -0.19000
C3197       C  0.28428934  0.50955286  0.92641561    -0.11300
C3198       C  0.29918138  0.50965725  0.93565473     0.21300
C3199       C  0.27511931  0.51180666  0.94347486    -0.20700
C3200       C  0.23700362  0.51382841  0.94213033    -0.11500
C3201       C  0.33920862  0.50665774  0.93751046    -0.15700
C3202       C  0.36602168  0.50849767  0.93085619    -0.29500
C3203       C  0.18204304  0.51545203  0.93095433    -0.03800
C3204       C  0.15501074  0.51202792  0.93741527    -0.40300
H3205       H  0.23553050  0.51137420  0.91787829     0.12400
H3206       H  0.30150576  0.50741556  0.92018575     0.12100
H3207       H  0.28586985  0.51193359  0.95066980     0.11500
H3208       H  0.21955683  0.51579720  0.94833539     0.11800
H3209       H  0.34690597  0.50279207  0.94478254     0.14500
H3210       H  0.35959508  0.51309983  0.92361486     0.13300
H3211       H  0.17441982  0.51915273  0.92365929     0.10900
H3212       H  0.16147160  0.50778946  0.94470390     0.13000
C3213       C  0.58481940  0.64945792  0.93360404     0.19000
C3214       C  0.55183795  0.63878014  0.93575323    -0.19000
C3215       C  0.55004400  0.61685077  0.93518082    -0.11300
C3216       C  0.58107580  0.60525683  0.93219756     0.21300
C3217       C  0.61420531  0.61596715  0.93016277    -0.20700
C3218       C  0.61624477  0.63785967  0.93097463    -0.11500
C3219       C  0.57873027  0.58236246  0.93025915    -0.15700
C3220       C  0.55618956  0.56915281  0.93504417    -0.29500
C3221       C  0.58478252  0.67269686  0.93318842    -0.03800
C3222       C  0.61271215  0.68454312  0.93650307    -0.40300
H3223       H  0.52721910  0.64748205  0.93770473     0.12400
H3224       H  0.52388618  0.60913884  0.93660768     0.12100
H3225       H  0.63836254  0.60739182  0.92776028     0.11500
H3226       H  0.64181103  0.64578547  0.92910537     0.11800
H3227       H  0.59688691  0.57606108  0.92477265     0.14500
H3228       H  0.54029452  0.57474656  0.94110955     0.13300
H3229       H  0.56033302  0.68034359  0.93033058     0.10900
H3230       H  0.63562508  0.67723795  0.94023453     0.13000
C3231       C  0.44915685  0.49467636  0.86225501     0.19000
C3232       C  0.48478073  0.49520000  0.86615078    -0.19000
C3233       C  0.48961627  0.49605030  0.87603128    -0.11300
C3234       C  0.45882758  0.49594177  0.88221156     0.21300
C3235       C  0.42327266  0.49419455  0.87832238    -0.20700
C3236       C  0.41840433  0.49379860  0.86843221    -0.11500
C3237       C  0.46334739  0.49725136  0.89271630    -0.15700
C3238       C  0.48973230  0.50926400  0.89670486    -0.29500
C3239       C  0.44456851  0.49534252  0.85175048    -0.03800
C3240       C  0.41797707  0.50704518  0.84771834    -0.40300
H3241       H  0.50886013  0.49554152  0.86153255     0.12400
H3242       H  0.51746368  0.49666428  0.87883045     0.12100
H3243       H  0.39920035  0.49365801  0.88293982     0.11500
H3244       H  0.39061192  0.49278316  0.86561327     0.11800
H3245       H  0.44403915  0.48866648  0.89722920     0.14500
H3246       H  0.50750092  0.51880001  0.89216719     0.13300
H3247       H  0.46454476  0.48719160  0.84729099     0.10900
H3248       H  0.39975044  0.51627011  0.85224506     0.13000
C3249       C  0.76534834  0.75587045  0.76356383     0.19000
C3250       C  0.75061656  0.77033052  0.75703630    -0.19000
C3251       C  0.75280894  0.76669202  0.74722115    -0.11300
C3252       C  0.76957719  0.74830489  0.74371655     0.21300
C3253       C  0.78433503  0.73387412  0.75024342    -0.20700
C3254       C  0.78209435  0.73748658  0.76004316    -0.11500
C3255       C  0.77397774  0.74388890  0.73337344    -0.15700
C3256       C  0.75515204  0.75361049  0.72636281    -0.29500
C3257       C  0.76091961  0.76008077  0.77393221    -0.03800
C3258       C  0.77975414  0.75000370  0.78082757    -0.40300
H3259       H  0.73746340  0.78458702  0.75954312     0.12400
H3260       H  0.74188621  0.77849971  0.74246607     0.12100
H3261       H  0.79747007  0.71960060  0.74774794     0.11500
H3262       H  0.79291141  0.72558912  0.76476448     0.11800
H3263       H  0.79411416  0.73194077  0.73144694     0.14500
H3264       H  0.73416627  0.76522577  0.72799159     0.13300
H3265       H  0.74076127  0.77192225  0.77597483     0.10900
H3266       H  0.80087707  0.73857272  0.77906324     0.13000
C3267       C  0.27000823  0.75873601  0.76206594     0.19000
C3268       C  0.24087080  0.76464954  0.75603272    -0.19000
C3269       C  0.24222687  0.76029852  0.74627216    -0.11300
C3270       C  0.27310145  0.75005428  0.74230755     0.21300
C3271       C  0.30239583  0.74437347  0.74832061    -0.20700
C3272       C  0.30106530  0.74874437  0.75806753    -0.11500
C3273       C  0.27599866  0.74464149  0.73203241    -0.15700
C3274       C  0.25530285  0.75324694  0.72508329    -0.29500
C3275       C  0.26647239  0.76313280  0.77243900    -0.03800
C3276       C  0.28709305  0.75394344  0.77926566    -0.40300
H3277       H  0.21659262  0.77237047  0.75891196     0.12400
H3278       H  0.21873540  0.76463585  0.74196001     0.12100
H3279       H  0.32661290  0.73657246  0.74545188     0.11500
H3280       H  0.32457382  0.74436981  0.76236056     0.11800
H3281       H  0.29773893  0.73368837  0.73004167     0.14500
H3282       H  0.23460766  0.76503357  0.72670301     0.13300
H3283       H  0.24411503  0.77352025  0.77459506     0.10900
H3284       H  0.30853745  0.74275027  0.77745223     0.13000
C3285       C  0.48747065  0.73883490  0.69077226     0.19000
C3286       C  0.51150464  0.73634728  0.69853949    -0.19000
C3287       C  0.54987746  0.73750982  0.69729959    -0.11300
C3288       C  0.56504025  0.74119435  0.68820438     0.21300
C3289       C  0.54102107  0.74329478  0.68042729    -0.20700
C3290       C  0.50275672  0.74209785  0.68165945    -0.11500
C3291       C  0.60542873  0.74275149  0.68632980    -0.15700
C3292       C  0.63188111  0.74450313  0.69303670    -0.29500
C3293       C  0.44691455  0.73761891  0.69252893    -0.03800
C3294       C  0.42081815  0.74324416  0.68617316    -0.40300
H3295       H  0.50053476  0.73355979  0.70562511     0.12400
H3296       H  0.56723796  0.73533370  0.70346865     0.12100
H3297       H  0.55191885  0.74592055  0.67332093     0.11500
H3298       H  0.48564328  0.74353048  0.67540607     0.11800
H3299       H  0.61368973  0.74320077  0.67887777     0.14500
H3300       H  0.62491525  0.74466447  0.70055183     0.13300
H3301       H  0.43817480  0.73229397  0.69954804     0.10900
H3302       H  0.42831778  0.74913254  0.67918463     0.13000
C3303       C  0.06493916  0.74079126  0.68715430     0.19000
C3304       C  0.03989710  0.74248153  0.67956995    -0.19000
C3305       C  0.00175362  0.74194213  0.68119718    -0.11300
C3306       C  0.98772542  0.73974706  0.69051277     0.21300
C3307       C  0.01275502  0.73749709  0.69806506    -0.20700
C3308       C  0.05090128  0.73797509  0.69643575    -0.11500
C3309       C  0.94747001  0.73916676  0.69271118    -0.15700
C3310       C  0.92070976  0.74507132  0.68661619    -0.29500
C3311       C  0.10517000  0.74211620  0.68497622    -0.03800
C3312       C  0.13193798  0.74448165  0.69155382    -0.40300
H3313       H  0.04988298  0.74436347  0.67232919     0.12400
H3314       H  0.98369128  0.74303552  0.67510536     0.12100
H3315       H  0.00274669  0.73544081  0.70529361     0.11500
H3316       H  0.06892272  0.73599948  0.70248642     0.11800
H3317       H  0.93957264  0.73395171  0.69981230     0.14500
H3318       H  0.92750081  0.75093605  0.67957233     0.13300
H3319       H  0.11296416  0.74200488  0.67748827     0.10900
H3320       H  0.12534432  0.74517746  0.69907902     0.13000
C3321       C  0.80372527  0.76754096  0.63758436     0.19000
C3322       C  0.77803487  0.76967807  0.63018613    -0.19000
C3323       C  0.78984153  0.77023832  0.62070211    -0.11300
C3324       C  0.82771904  0.76906456  0.61847717     0.21300
C3325       C  0.85354348  0.76802382  0.62589682    -0.20700
C3326       C  0.84169500  0.76706955  0.63538000    -0.11500
C3327       C  0.84108408  0.76911735  0.60850003    -0.15700
C3328       C  0.82253291  0.75962065  0.60141068    -0.29500
C3329       C  0.78995811  0.76607346  0.64750509    -0.03800
C3330       C  0.80685345  0.75455190  0.65424488    -0.40300
H3331       H  0.74868674  0.77046516  0.63174404     0.12400
H3332       H  0.76937323  0.77173468  0.61513352     0.12100
H3333       H  0.88290732  0.76749592  0.62433521     0.11500
H3334       H  0.86222293  0.76613074  0.64095810     0.11800
H3335       H  0.86819111  0.77588442  0.60707851     0.14500
H3336       H  0.79678477  0.75139559  0.60289810     0.13300
H3337       H  0.76370846  0.77359706  0.64913105     0.10900
H3338       H  0.83189535  0.74589342  0.65255621     0.13000
C3339       C  0.64211480  0.74941536  0.56367782     0.19000
C3340       C  0.61798715  0.74219913  0.55657441    -0.19000
C3341       C  0.57974379  0.74218719  0.55803057    -0.11300
C3342       C  0.56474659  0.74963164  0.56664107     0.21300
C3343       C  0.58885318  0.75664083  0.57378453    -0.20700
C3344       C  0.62708160  0.75668581  0.57232619    -0.11500
C3345       C  0.52437699  0.75044636  0.56854204    -0.15700
C3346       C  0.49806586  0.74950600  0.56177135    -0.29500
C3347       C  0.68247003  0.74927220  0.56163705    -0.03800
C3348       C  0.70904700  0.75214823  0.56821607    -0.40300
H3349       H  0.62879074  0.73643236  0.54985962     0.12400
H3350       H  0.56233043  0.73613686  0.55242401     0.12100
H3351       H  0.57802319  0.76244147  0.58049171     0.11500
H3352       H  0.64434070  0.76275582  0.57795351     0.11800
H3353       H  0.51604547  0.75298303  0.57590087     0.14500
H3354       H  0.50532863  0.74761724  0.55432381     0.13300
H3355       H  0.69067749  0.74609785  0.55432106     0.10900
H3356       H  0.70212073  0.75481784  0.57563029     0.13000
C3357       C  0.14178623  0.75498406  0.56294941     0.19000
C3358       C  0.11637396  0.74486168  0.55697971    -0.19000
C3359       C  0.07859071  0.74531670  0.55902214    -0.11300
C3360       C  0.06537170  0.75625014  0.56703578     0.21300
C3361       C  0.09075862  0.76643067  0.57300564    -0.20700
C3362       C  0.12860686  0.76595847  0.57096498    -0.11500
C3363       C  0.02551424  0.75706460  0.56949737    -0.15700
C3364       C  0.99834590  0.75447685  0.56306937    -0.29500
C3365       C  0.18161818  0.75367216  0.56050830    -0.03800
C3366       C  0.20893588  0.75603431  0.56689910    -0.40300
H3367       H  0.12586076  0.73624680  0.55078372     0.12400
H3368       H  0.06007741  0.73674483  0.55440150     0.12100
H3369       H  0.08122545  0.77497595  0.57921726     0.11500
H3370       H  0.14719585  0.77442596  0.57560608     0.11800
H3371       H  0.01833914  0.76091933  0.57681753     0.14500
H3372       H  0.00484210  0.75192107  0.55561016     0.13300
H3373       H  0.18860250  0.74926369  0.55324138     0.10900
H3374       H  0.20265985  0.75934763  0.57430880     0.13000
C3375       C  0.32645062  0.76730631  0.61719935     0.19000
C3376       C  0.35208578  0.76746030  0.62467189    -0.19000
C3377       C  0.34009554  0.76626990  0.63413118    -0.11300
C3378       C  0.30210699  0.76518963  0.63626965     0.21300
C3379       C  0.27642403  0.76585015  0.62881935    -0.20700
C3380       C  0.28841454  0.76677168  0.61935834    -0.11500
C3381       C  0.28838382  0.76393730  0.64619359    -0.15700
C3382       C  0.30681243  0.75383187  0.65311553    -0.29500
C3383       C  0.34024746  0.76786463  0.60725305    -0.03800
C3384       C  0.32210258  0.75859507  0.60005571    -0.40300
H3385       H  0.38149078  0.76818928  0.62317631     0.12400
H3386       H  0.36053074  0.76647539  0.63974654     0.12100
H3387       H  0.24700691  0.76538952  0.63032468     0.11500
H3388       H  0.26787306  0.76732554  0.61377601     0.11800
H3389       H  0.26126783  0.77052246  0.64771677     0.14500
H3390       H  0.33263749  0.74584529  0.65152773     0.13300
H3391       H  0.36731398  0.77478195  0.60593607     0.10900
H3392       H  0.29638659  0.75024031  0.60141109     0.13000
C3393       C  0.63057938  0.99837059  0.76220106     0.19000
C3394       C  0.65185379  0.98586494  0.75601965    -0.19000
C3395       C  0.64675482  0.98671467  0.74615058    -0.11300
C3396       C  0.62018563  0.00026240  0.74220136     0.21300
C3397       C  0.59924697  0.01296704  0.74837754    -0.20700
C3398       C  0.60434875  0.01212026  0.75823985    -0.11500
C3399       C  0.61265607  0.00166443  0.73178791    -0.15700
C3400       C  0.63056983  0.99091840  0.72487310    -0.29500
C3401       C  0.63722130  0.99655809  0.77264503    -0.03800
C3402       C  0.61638362  0.00558884  0.77950781    -0.40300
H3403       H  0.67243973  0.97521477  0.75884692     0.12400
H3404       H  0.66359384  0.97661650  0.74174339     0.12100
H3405       H  0.57868169  0.02364437  0.74555857     0.11500
H3406       H  0.58774261  0.02237330  0.76263343     0.11800
H3407       H  0.59044202  0.01218970  0.72970774     0.14500
H3408       H  0.65288123  0.98020644  0.72653396     0.13300
H3409       H  0.66069628  0.98703995  0.77480207     0.10900
H3410       H  0.59268702  0.01520763  0.77774579     0.13000
C3411       C  0.68620671  0.89278601  0.68317297     0.19000
C3412       C  0.72210795  0.88433356  0.68327585    -0.19000
C3413       C  0.72759273  0.86253405  0.68362469    -0.11300
C3414       C  0.69716969  0.84875138  0.68360193     0.21300
C3415       C  0.66129706  0.85719878  0.68339807    -0.20700
C3416       C  0.65580035  0.87899203  0.68332721    -0.11500
C3417       C  0.70197828  0.82559596  0.68300094    -0.15700
C3418       C  0.72842466  0.81489061  0.68770618    -0.29500
C3419       C  0.68128781  0.91589033  0.68217098    -0.03800
C3420       C  0.65388672  0.92671561  0.68646952    -0.40300
H3421       H  0.74597437  0.89464734  0.68303279     0.12400
H3422       H  0.75556120  0.85646438  0.68355166     0.12100
H3423       H  0.63744332  0.84687210  0.68323840     0.11500
H3424       H  0.62783068  0.88501438  0.68303031     0.11800
H3425       H  0.68177360  0.81691267  0.67884184     0.14500
H3426       H  0.74675442  0.82310440  0.69256178     0.13300
H3427       H  0.70203343  0.92445166  0.67808581     0.10900
H3428       H  0.63509554  0.91872353  0.69133209     0.13000
C3429       C  0.12170714  0.99445329  0.76184970     0.19000
C3430       C  0.15029056  0.98854596  0.75560397    -0.19000
C3431       C  0.14635956  0.99082272  0.74575760    -0.11300
C3432       C  0.11337793  0.99884232  0.74193549     0.21300
C3433       C  0.08471904  0.00466257  0.74817952    -0.20700
C3434       C  0.08865312  0.00238767  0.75802758    -0.11500
C3435       C  0.10771609  0.00173502  0.73154639    -0.15700
C3436       C  0.12714596  0.99171350  0.72470582    -0.29500
C3437       C  0.12777066  0.99203921  0.77224791    -0.03800
C3438       C  0.10886013  0.00259406  0.77900886    -0.40300
H3439       H  0.17607365  0.98243131  0.75836672     0.12400
H3440       H  0.16944512  0.98661929  0.74123140     0.12100
H3441       H  0.05897710  0.01083581  0.74541726     0.11500
H3442       H  0.06560467  0.00663572  0.76255910     0.11800
H3443       H  0.08502062  0.01190878  0.72944904     0.14500
H3444       H  0.14879344  0.98066181  0.72653004     0.13300
H3445       H  0.15061917  0.98203408  0.77439971     0.10900
H3446       H  0.08703216  0.01346810  0.77710840     0.13000
C3447       C  0.81720323  0.00179631  0.68636589     0.19000
C3448       C  0.84152236  0.00204370  0.67852351    -0.19000
C3449       C  0.87982537  0.00265973  0.67983461    -0.11300
C3450       C  0.89465074  0.00302725  0.68907326     0.21300
C3451       C  0.87037901  0.00343379  0.69689974    -0.20700
C3452       C  0.83212412  0.00278473  0.69559729    -0.11500
C3453       C  0.93499266  0.00345073  0.69096875    -0.15700
C3454       C  0.96145905  0.99785012  0.68466997    -0.29500
C3455       C  0.77684280  0.00006996  0.68448484    -0.03800
C3456       C  0.75039590  0.99761502  0.69121247    -0.40300
H3457       H  0.83085143  0.00156269  0.67132393     0.12400
H3458       H  0.89747193  0.00301593  0.67360061     0.12100
H3459       H  0.88109206  0.00401110  0.70409424     0.11500
H3460       H  0.81477690  0.00300263  0.70187227     0.11800
H3461       H  0.94319149  0.00806279  0.69811025     0.14500
H3462       H  0.95436662  0.99275637  0.67753716     0.13300
H3463       H  0.76861579  0.00011425  0.67704457     0.10900
H3464       H  0.75712074  0.99745800  0.69872062     0.13000
C3465       C  0.39466089  0.99403007  0.69013279     0.19000
C3466       C  0.37014040  0.98887815  0.69755563    -0.19000
C3467       C  0.33198868  0.98865412  0.69603889    -0.11300
C3468       C  0.31763021  0.99386863  0.68705058     0.21300
C3469       C  0.34216618  0.99898808  0.67962650    -0.20700
C3470       C  0.38029246  0.99921404  0.68114280    -0.11500
C3471       C  0.27755124  0.99324524  0.68494377    -0.15700
C3472       C  0.25055420  0.99419069  0.69157747    -0.29500
C3473       C  0.43476369  0.99477489  0.69220649    -0.03800
C3474       C  0.46147007  0.99338737  0.68552281    -0.40300
H3475       H  0.38058237  0.98485176  0.70454813     0.12400
H3476       H  0.31409745  0.98403658  0.70186937     0.12100
H3477       H  0.33175506  0.00302047  0.67263099     0.11500
H3478       H  0.39817152  0.00385843  0.67531268     0.11800
H3479       H  0.27001733  0.99212236  0.67747172     0.14500
H3480       H  0.25709648  0.99606497  0.69906333     0.13300
H3481       H  0.44256536  0.99623238  0.69964795     0.10900
H3482       H  0.45456315  0.99084377  0.67809817     0.13000
C3483       C  0.19352192  0.84804611  0.68461895     0.19000
C3484       C  0.15770968  0.85642414  0.68552317    -0.19000
C3485       C  0.15194163  0.87821595  0.68530852    -0.11300
C3486       C  0.18189957  0.89202622  0.68393016     0.21300
C3487       C  0.21769037  0.88363845  0.68308686    -0.20700
C3488       C  0.22355556  0.86190897  0.68354657    -0.11500
C3489       C  0.17658024  0.91500626  0.68255298    -0.15700
C3490       C  0.15062050  0.92642890  0.68711618    -0.29500
C3491       C  0.19839621  0.82488924  0.68386635    -0.03800
C3492       C  0.22814509  0.81450438  0.68721278    -0.40300
H3493       H  0.13407260  0.84604376  0.68625085     0.12400
H3494       H  0.12395465  0.88416385  0.68579895     0.12100
H3495       H  0.24117291  0.89394960  0.68193190     0.11500
H3496       H  0.25136998  0.85594352  0.68262391     0.11800
H3497       H  0.19624214  0.92306437  0.67793430     0.14500
H3498       H  0.13295784  0.91905458  0.69243594     0.13300
H3499       H  0.17610249  0.81595270  0.68061877     0.10900
H3500       H  0.24899406  0.82282173  0.69129857     0.13000
C3501       C  0.43567222  0.85250512  0.56692655     0.19000
C3502       C  0.47199809  0.86025244  0.56760857    -0.19000
C3503       C  0.47895809  0.88190278  0.56748174    -0.11300
C3504       C  0.44949925  0.89620042  0.56694449     0.21300
C3505       C  0.41321065  0.88846853  0.56618877    -0.20700
C3506       C  0.40633329  0.86680834  0.56604405    -0.11500
C3507       C  0.45547749  0.91909884  0.56811429    -0.15700
C3508       C  0.48391759  0.92965770  0.56413559    -0.29500
C3509       C  0.42901434  0.82966541  0.56819311    -0.03800
C3510       C  0.40187175  0.81883214  0.56381954    -0.40300
H3511       H  0.49498966  0.84950432  0.56841733     0.12400
H3512       H  0.50712465  0.88745220  0.56826467     0.12100
H3513       H  0.39007987  0.89924677  0.56587276     0.11500
H3514       H  0.37800342  0.86130642  0.56571872     0.11800
H3515       H  0.43462847  0.92779283  0.57207931     0.14500
H3516       H  0.50292883  0.92168063  0.55934710     0.13300
H3517       H  0.44817625  0.82122882  0.57276168     0.10900
H3518       H  0.38457870  0.82639691  0.55852120     0.13000
C3519       C  0.58173742  0.98427681  0.63504705     0.19000
C3520       C  0.60728017  0.98521842  0.62750074    -0.19000
C3521       C  0.59519599  0.98583764  0.61804391    -0.11300
C3522       C  0.55717182  0.98523461  0.61594363     0.21300
C3523       C  0.53167700  0.98375128  0.62348648    -0.20700
C3524       C  0.54374235  0.98340389  0.63294433    -0.11500
C3525       C  0.54320827  0.98517606  0.60599550    -0.15700
C3526       C  0.56131887  0.99425066  0.59866048    -0.29500
C3527       C  0.59563001  0.98354330  0.64499311    -0.03800
C3528       C  0.57668236  0.99150964  0.65242686    -0.40300
H3529       H  0.63670618  0.98558479  0.62893357     0.12400
H3530       H  0.61570653  0.98630558  0.61241232     0.12100
H3531       H  0.50227797  0.98291905  0.62205348     0.11500
H3532       H  0.52332167  0.98201086  0.63856998     0.11800
H3533       H  0.51622312  0.97815123  0.60474542     0.14500
H3534       H  0.58702889  0.00265178  0.59988309     0.13300
H3535       H  0.62320472  0.97727112  0.64615265     0.10900
H3536       H  0.55033398  0.99925090  0.65126408     0.13000
C3537       C  0.74196272  0.00438267  0.56132950     0.19000
C3538       C  0.76701984  0.00427891  0.55367017    -0.19000
C3539       C  0.80514157  0.00387380  0.55525068    -0.11300
C3540       C  0.81912353  0.00378377  0.56459695     0.21300
C3541       C  0.79400122  0.00420135  0.57225777    -0.20700
C3542       C  0.75587701  0.00457867  0.57067155    -0.11500
C3543       C  0.85930306  0.00265885  0.56678815    -0.15700
C3544       C  0.88679363  0.00337099  0.56026757    -0.29500
C3545       C  0.70177029  0.00477207  0.55919626    -0.03800
C3546       C  0.67501527  0.99956818  0.56548408    -0.40300
H3547       H  0.75703368  0.00426324  0.54640160     0.12400
H3548       H  0.82311678  0.00339124  0.54909757     0.12100
H3549       H  0.80391136  0.00423798  0.57953356     0.11500
H3550       H  0.73767900  0.00529927  0.57678956     0.11800
H3551       H  0.86655835  0.00075367  0.57424773     0.14500
H3552       H  0.88101131  0.00537443  0.55276018     0.13300
H3553       H  0.69395479  0.00910997  0.55198736     0.10900
H3554       H  0.68186263  0.99462000  0.57265572     0.13000
C3555       C  0.31904110  0.00186148  0.56561289     0.19000
C3556       C  0.29450391  0.99907420  0.57329639    -0.19000
C3557       C  0.25641938  0.00148235  0.57208951    -0.11300
C3558       C  0.24196219  0.00664069  0.56309877     0.21300
C3559       C  0.26652641  0.00989673  0.55546862    -0.20700
C3560       C  0.30461671  0.00754142  0.55667834    -0.11500
C3561       C  0.20171953  0.00880693  0.56128337    -0.15700
C3562       C  0.17494935  0.00148341  0.56711665    -0.29500
C3563       C  0.35923469  0.99908097  0.56738323    -0.03800
C3564       C  0.38566198  0.99886094  0.56057589    -0.40300
H3565       H  0.30484200  0.99499006  0.58029286     0.12400
H3566       H  0.23874976  0.99945508  0.57824880     0.12100
H3567       H  0.25617227  0.01412800  0.54849185     0.11500
H3568       H  0.32228017  0.01036179  0.55058866     0.11800
H3569       H  0.19382665  0.01593925  0.55455091     0.14500
H3570       H  0.18166922  0.99382302  0.57378541     0.13300
H3571       H  0.36740472  0.99683987  0.57475961     0.10900
H3572       H  0.37878604  0.00056294  0.55311389     0.13000
C3573       C  0.93276963  0.85607379  0.56938402     0.19000
C3574       C  0.96900818  0.86406271  0.56952443    -0.19000
C3575       C  0.97549970  0.88572111  0.56899306    -0.11300
C3576       C  0.94570932  0.89982602  0.56856691     0.21300
C3577       C  0.90945291  0.89184805  0.56842612    -0.20700
C3578       C  0.90299210  0.87014823  0.56869927    -0.11500
C3579       C  0.95155982  0.92285136  0.56919430    -0.15700
C3580       C  0.98006135  0.93297586  0.56500204    -0.29500
C3581       C  0.92686953  0.83320324  0.57077059    -0.03800
C3582       C  0.89960203  0.82222024  0.56655047    -0.40300
H3583       H  0.99234710  0.85350156  0.57016232     0.12400
H3584       H  0.00369139  0.89144806  0.56933682     0.12100
H3585       H  0.88607077  0.90246548  0.56822726     0.11500
H3586       H  0.87474261  0.86445676  0.56878603     0.11800
H3587       H  0.93091456  0.93192460  0.57305228     0.14500
H3588       H  0.99896181  0.92453040  0.56035419     0.13300
H3589       H  0.94696205  0.82486562  0.57510295     0.10900
H3590       H  0.88144818  0.82982468  0.56145736     0.13000
C3591       C  0.08377712  0.98198599  0.63507874     0.19000
C3592       C  0.10897242  0.98372746  0.62749609    -0.19000
C3593       C  0.09641767  0.98429123  0.61808975    -0.11300
C3594       C  0.05834747  0.98280099  0.61611418     0.21300
C3595       C  0.03335932  0.98014758  0.62369139    -0.20700
C3596       C  0.04586638  0.97988777  0.63309399    -0.11500
C3597       C  0.04380892  0.98350788  0.60625551    -0.15700
C3598       C  0.06064400  0.99416715  0.59918461    -0.29500
C3599       C  0.09771914  0.98201018  0.64498152    -0.03800
C3600       C  0.07880810  0.99091026  0.65218725    -0.40300
H3601       H  0.13837319  0.98498234  0.62886644     0.12400
H3602       H  0.11658530  0.98560528  0.61240181     0.12100
H3603       H  0.00399622  0.97857597  0.62233578     0.11500
H3604       H  0.02590842  0.97782594  0.63879163     0.11800
H3605       H  0.01739965  0.97589786  0.60490171     0.14500
H3606       H  0.08585058  0.00293307  0.60056896     0.13300
H3607       H  0.12511934  0.97561579  0.64627151     0.10900
H3608       H  0.05275964  0.99881326  0.65080288     0.13000
C3609       C  0.56604062  0.14517939  0.55316877     0.19000
C3610       C  0.55995644  0.13448365  0.56183326    -0.19000
C3611       C  0.56185274  0.11248423  0.56223879    -0.11300
C3612       C  0.56973828  0.10075869  0.55397130     0.21300
C3613       C  0.57575037  0.11155718  0.54537178    -0.20700
C3614       C  0.57374392  0.13341975  0.54496692    -0.11500
C3615       C  0.57182353  0.07739415  0.55375953    -0.15700
C3616       C  0.56476090  0.06433697  0.56113640    -0.29500
C3617       C  0.56344821  0.16840738  0.55220394    -0.03800
C3618       C  0.56645907  0.18201850  0.55949888    -0.40300
H3619       H  0.55302510  0.14292251  0.56827531     0.12400
H3620       H  0.55696181  0.10491224  0.56901954     0.12100
H3621       H  0.58183119  0.10302288  0.53887812     0.11500
H3622       H  0.57834257  0.14119248  0.53819054     0.11800
H3623       H  0.57938921  0.07048445  0.54694783     0.14500
H3624       H  0.55727439  0.07038009  0.56809170     0.13300
H3625       H  0.55998320  0.17460402  0.54504172     0.10900
H3626       H  0.57140535  0.17636792  0.56667356     0.13000
C3627       C  0.06213064  0.14670455  0.55567412     0.19000
C3628       C  0.06888156  0.13558078  0.56418288    -0.19000
C3629       C  0.06830177  0.11352879  0.56426706    -0.11300
C3630       C  0.06092821  0.10224745  0.55584946     0.21300
C3631       C  0.05408387  0.11345959  0.54744032    -0.20700
C3632       C  0.05467686  0.13532285  0.54735410    -0.11500
C3633       C  0.06167302  0.07894291  0.55520329    -0.15700
C3634       C  0.06346749  0.06556115  0.56262902    -0.29500
C3635       C  0.06257650  0.17000551  0.55490411    -0.03800
C3636       C  0.06619161  0.18354036  0.56220815    -0.40300
H3637       H  0.07507260  0.14365070  0.57075354     0.12400
H3638       H  0.07433361  0.10554221  0.57087759     0.12100
H3639       H  0.04846380  0.10525326  0.54084166     0.11500
H3640       H  0.04936711  0.14338784  0.54069567     0.11800
H3641       H  0.06076070  0.07240248  0.54805619     0.14500
H3642       H  0.06343878  0.07127907  0.56989921     0.13300
H3643       H  0.05877799  0.17642557  0.54779421     0.10900
H3644       H  0.06962372  0.17798076  0.56944937     0.13000
C3645       C  0.80998971  0.24597844  0.56435358     0.19000
C3646       C  0.83386677  0.25068218  0.57192289    -0.19000
C3647       C  0.87217763  0.24924814  0.57080292    -0.11300
C3648       C  0.88750963  0.24293380  0.56203623     0.21300
C3649       C  0.86352930  0.23774474  0.55453628    -0.20700
C3650       C  0.82520316  0.23919993  0.55566030    -0.11500
C3651       C  0.92800855  0.24164271  0.56025744    -0.15700
C3652       C  0.95454670  0.24731975  0.56648429    -0.29500
C3653       C  0.76958269  0.24800175  0.56597848    -0.03800
C3654       C  0.74401157  0.24927171  0.55902777    -0.40300
H3655       H  0.82282406  0.25570598  0.57873570     0.12400
H3656       H  0.88924244  0.25315500  0.57684189     0.12100
H3657       H  0.87449959  0.23260272  0.54773455     0.11500
H3658       H  0.80783319  0.23478665  0.54973782     0.11800
H3659       H  0.93639218  0.23603101  0.55326492     0.14500
H3660       H  0.94770869  0.25301397  0.57353746     0.13300
H3661       H  0.76063007  0.24923219  0.57335849     0.10900
H3662       H  0.75198116  0.24873236  0.55157807     0.13000
C3663       C  0.38751224  0.24512608  0.55877523     0.19000
C3664       C  0.36278700  0.25008667  0.55142230    -0.19000
C3665       C  0.32474773  0.25140348  0.55319604    -0.11300
C3666       C  0.31061000  0.24748410  0.56238950     0.21300
C3667       C  0.33534167  0.24217608  0.56968944    -0.20700
C3668       C  0.37329860  0.24087704  0.56791735    -0.11500
C3669       C  0.27073513  0.24942212  0.56485560    -0.15700
C3670       C  0.24300202  0.25044678  0.55848190    -0.29500
C3671       C  0.42771307  0.24416480  0.55658600    -0.03800
C3672       C  0.45434145  0.24627984  0.56321158    -0.40300
H3673       H  0.37301798  0.25331496  0.54430238     0.12400
H3674       H  0.30691049  0.25590069  0.54738461     0.12100
H3675       H  0.32523383  0.23896849  0.57682327     0.11500
H3676       H  0.39117874  0.23629425  0.57371316     0.11800
H3677       H  0.26389975  0.24977807  0.57240229     0.14500
H3678       H  0.24853302  0.24946714  0.55090125     0.13300
H3679       H  0.43563969  0.24237676  0.54915344     0.10900
H3680       H  0.44714626  0.24914210  0.57060460     0.13000
C3681       C  0.51338548  0.25792754  0.76131885     0.19000
C3682       C  0.48490788  0.26221743  0.75482554    -0.19000
C3683       C  0.49005257  0.25894495  0.74505569    -0.11300
C3684       C  0.52415768  0.25154678  0.74156044     0.21300
C3685       C  0.55285059  0.24767974  0.74805002    -0.20700
C3686       C  0.54767563  0.25091169  0.75780894    -0.11500
C3687       C  0.53093971  0.24698688  0.73131322    -0.15700
C3688       C  0.50992390  0.25403490  0.72406581    -0.29500
C3689       C  0.50618933  0.26104707  0.77165003    -0.03800
C3690       C  0.52490597  0.25108973  0.77860794    -0.40300
H3691       H  0.45826020  0.26771462  0.75734499     0.12400
H3692       H  0.46698149  0.26180157  0.74035803     0.12100
H3693       H  0.57949139  0.24211536  0.74555574     0.11500
H3694       H  0.57069568  0.24805581  0.76253190     0.11800
H3695       H  0.55548476  0.23783263  0.72963988     0.14500
H3696       H  0.48633743  0.26413662  0.72537773     0.13300
H3697       H  0.48300356  0.27105354  0.77358070     0.10900
H3698       H  0.54682941  0.24010742  0.77687391     0.13000
C3699       C  0.56693677  0.14216523  0.69667621     0.19000
C3700       C  0.57227015  0.13083577  0.68815868    -0.19000
C3701       C  0.57145982  0.10876023  0.68815482    -0.11300
C3702       C  0.56537438  0.09748615  0.69667713     0.21300
C3703       C  0.56011872  0.10889661  0.70513326    -0.20700
C3704       C  0.56097283  0.13085164  0.70513615    -0.11500
C3705       C  0.56445443  0.07401817  0.69726950    -0.15700
C3706       C  0.56872891  0.06064522  0.68987668    -0.29500
C3707       C  0.56858617  0.16559625  0.69725564    -0.03800
C3708       C  0.56744311  0.17883619  0.68973650    -0.40300
H3709       H  0.57772704  0.13881616  0.68149930     0.12400
H3710       H  0.57589556  0.10078395  0.68146356     0.12100
H3711       H  0.55543668  0.10078003  0.71182232     0.11500
H3712       H  0.55696081  0.13904743  0.71182160     0.11800
H3713       H  0.55996579  0.06734713  0.70431453     0.14500
H3714       H  0.57328723  0.06650564  0.68272040     0.13300
H3715       H  0.57028096  0.17231728  0.70435687     0.10900
H3716       H  0.56457883  0.17278964  0.68256161     0.13000
C3717       C  0.57613707  0.25284626  0.61464661     0.19000
C3718       C  0.60270289  0.25238679  0.62191471    -0.19000
C3719       C  0.59196454  0.25167117  0.63150138    -0.11300
C3720       C  0.55423787  0.25158808  0.63402364     0.21300
C3721       C  0.52769349  0.25204183  0.62675052    -0.20700
C3722       C  0.53842750  0.25257991  0.61716697    -0.11500
C3723       C  0.54148340  0.25237438  0.64410848    -0.15700
C3724       C  0.56160020  0.24542326  0.65152335    -0.29500
C3725       C  0.58873686  0.25485057  0.60458744    -0.03800
C3726       C  0.56865114  0.24837390  0.59708346    -0.40300
H3727       H  0.63192137  0.25280845  0.62016801     0.12400
H3728       H  0.61328413  0.25190205  0.63688563     0.12100
H3729       H  0.49847078  0.25222857  0.62849689     0.11500
H3730       H  0.51711301  0.25349587  0.61179528     0.11800
H3731       H  0.51380331  0.25837097  0.64544677     0.14500
H3732       H  0.58820377  0.23798582  0.65032272     0.13300
H3733       H  0.61625364  0.26123787  0.60333628     0.10900
H3734       H  0.54236604  0.24044791  0.59818836     0.13000
C3735       C  0.01006002  0.25296124  0.76176714     0.19000
C3736       C  0.99604036  0.26751173  0.75519954    -0.19000
C3737       C  0.00017096  0.26429434  0.74541889    -0.11300
C3738       C  0.01806617  0.24618872  0.74198682     0.21300
C3739       C  0.03177221  0.23152337  0.74856011    -0.20700
C3740       C  0.02769032  0.23476592  0.75834608    -0.11500
C3741       C  0.02478907  0.24243637  0.73169455    -0.15700
C3742       C  0.00777344  0.25286024  0.72459945    -0.29500
C3743       C  0.00442112  0.25707268  0.77206669    -0.03800
C3744       C  0.02396158  0.24783170  0.77905175    -0.40300
H3745       H  0.98220864  0.28160694  0.75765241     0.12400
H3746       H  0.98995922  0.27628742  0.74065926     0.12100
H3747       H  0.04567135  0.21744400  0.74611167     0.11500
H3748       H  0.03790551  0.22282369  0.76313979     0.11800
H3749       H  0.04527101  0.23058374  0.72988895     0.14500
H3750       H  0.98647425  0.26437724  0.72607619     0.13300
H3751       H  0.98318561  0.26841271  0.77396915     0.10900
H3752       H  0.04601075  0.23686937  0.77741561     0.13000
C3753       C  0.06970953  0.14321351  0.69628148     0.19000
C3754       C  0.06614253  0.13162505  0.70473736    -0.19000
C3755       C  0.06407186  0.10974628  0.70454820    -0.11300
C3756       C  0.06603741  0.09872930  0.69590745     0.21300
C3757       C  0.06975375  0.11024653  0.68737457    -0.20700
C3758       C  0.07164220  0.13229025  0.68756250    -0.11500
C3759       C  0.06358805  0.07537610  0.69631849    -0.15700
C3760       C  0.07185094  0.06209064  0.68913269    -0.29500
C3761       C  0.07214744  0.16651226  0.69705223    -0.03800
C3762       C  0.06624499  0.18008518  0.68983972    -0.40300
H3763       H  0.06473091  0.13955289  0.71155629     0.12400
H3764       H  0.06114564  0.10136652  0.71123498     0.12100
H3765       H  0.07094494  0.10243886  0.68054785     0.11500
H3766       H  0.07509896  0.14058349  0.68089110     0.11800
H3767       H  0.05531986  0.06870519  0.70313759     0.14500
H3768       H  0.08063883  0.06800506  0.68223949     0.13300
H3769       H  0.07805249  0.17282534  0.70407834     0.10900
H3770       H  0.05936707  0.17438160  0.68278803     0.13000
C3771       C  0.82188920  0.24652291  0.68642552     0.19000
C3772       C  0.79790578  0.24234005  0.67880724    -0.19000
C3773       C  0.75970367  0.24113719  0.68024739    -0.11300
C3774       C  0.74459913  0.24428186  0.68937709     0.21300
C3775       C  0.76852590  0.24839324  0.69700247    -0.20700
C3776       C  0.80672488  0.24964953  0.69556228    -0.11500
C3777       C  0.70435321  0.24271451  0.69135564    -0.15700
C3778       C  0.67785036  0.24477985  0.68469688    -0.29500
C3779       C  0.86217953  0.24799925  0.68439017    -0.03800
C3780       C  0.88888955  0.24852514  0.69106614    -0.40300
H3781       H  0.80879989  0.23984246  0.67169637     0.12400
H3782       H  0.74237526  0.23736515  0.67422470     0.12100
H3783       H  0.75756959  0.25083480  0.70411137     0.11500
H3784       H  0.82387347  0.25334108  0.70161885     0.11800
H3785       H  0.69621539  0.24032432  0.69874246     0.14500
H3786       H  0.68500544  0.24821898  0.67734703     0.13300
H3787       H  0.87021821  0.24852415  0.67692266     0.10900
H3788       H  0.88218301  0.24750677  0.69858124     0.13000
C3789       C  0.32179209  0.23951186  0.68681794     0.19000
C3790       C  0.29691142  0.23561001  0.67936094    -0.19000
C3791       C  0.25878142  0.23530643  0.68101921    -0.11300
C3792       C  0.24469303  0.23904384  0.69020887     0.21300
C3793       C  0.26951058  0.24237235  0.69771318    -0.20700
C3794       C  0.30762309  0.24277263  0.69605609    -0.11500
C3795       C  0.20448810  0.23916877  0.69233126    -0.15700
C3796       C  0.17822263  0.24321311  0.68580107    -0.29500
C3797       C  0.36185576  0.24103265  0.68448518    -0.03800
C3798       C  0.38913907  0.24237435  0.69097499    -0.40300
H3799       H  0.30700634  0.23291200  0.67218798     0.12400
H3800       H  0.24061138  0.23196004  0.67510728     0.12100
H3801       H  0.25931982  0.24511770  0.70487363     0.11500
H3802       H  0.32543259  0.24611293  0.70202322     0.11800
H3803       H  0.19632506  0.23648682  0.69969551     0.14500
H3804       H  0.18573931  0.24680720  0.67848735     0.13300
H3805       H  0.36914948  0.24139779  0.67696556     0.10900
H3806       H  0.38324304  0.24152757  0.69853562     0.13000
C3807       C  0.07991677  0.25906405  0.61613051     0.19000
C3808       C  0.10599104  0.25631011  0.62338328    -0.19000
C3809       C  0.09483445  0.25565594  0.63291137    -0.11300
C3810       C  0.05727499  0.25799005  0.63535108     0.21300
C3811       C  0.03127457  0.26107962  0.62809213    -0.20700
C3812       C  0.04239900  0.26150654  0.61855602    -0.11500
C3813       C  0.04451744  0.25840362  0.64538307    -0.15700
C3814       C  0.06261299  0.24881452  0.65251135    -0.29500
C3815       C  0.09284676  0.26005789  0.60613647    -0.03800
C3816       C  0.07247954  0.25287588  0.59885472    -0.40300
H3817       H  0.13508821  0.25464852  0.62166407     0.12400
H3818       H  0.11582299  0.25391300  0.63832470     0.12100
H3819       H  0.00227461  0.26322360  0.62981109     0.11500
H3820       H  0.02176777  0.26424389  0.61312701     0.11800
H3821       H  0.01859992  0.26639719  0.64690238     0.14500
H3822       H  0.08714363  0.23951674  0.65107299     0.13300
H3823       H  0.12078461  0.26572730  0.60479855     0.10900
H3824       H  0.04573185  0.24561660  0.60019285     0.13000
C3825       C  0.89998706  0.50134541  0.75797055     0.19000
C3826       C  0.92437923  0.49041053  0.75193595    -0.19000
C3827       C  0.92287525  0.49292275  0.74204184    -0.11300
C3828       C  0.89665088  0.50645228  0.73793487     0.21300
C3829       C  0.87246035  0.51749490  0.74397465    -0.20700
C3830       C  0.87392107  0.51496310  0.75385331    -0.11500
C3831       C  0.89229336  0.50922619  0.72746811    -0.15700
C3832       C  0.90995491  0.49803048  0.72066918    -0.29500
C3833       C  0.90296556  0.49791798  0.76843931    -0.03800
C3834       C  0.88472937  0.50903399  0.77515685    -0.40300
H3835       H  0.94481158  0.47983633  0.75489294     0.12400
H3836       H  0.94228424  0.48419170  0.73773017     0.12100
H3837       H  0.85185785  0.52797821  0.74102724     0.11500
H3838       H  0.85422434  0.52356517  0.75812790     0.11800
H3839       H  0.87154344  0.52054626  0.72524392     0.14500
H3840       H  0.93050911  0.48633768  0.72247207     0.13300
H3841       H  0.92227348  0.48587873  0.77074624     0.10900
H3842       H  0.86583531  0.52151638  0.77324701     0.13000
C3843       C  0.80918538  0.64291245  0.69590038     0.19000
C3844       C  0.79363817  0.63044082  0.70312098    -0.19000
C3845       C  0.79488373  0.60855055  0.70259719    -0.11300
C3846       C  0.81196195  0.59840776  0.69486949     0.21300
C3847       C  0.82742418  0.61082950  0.68754234    -0.20700
C3848       C  0.82599597  0.63289168  0.68805045    -0.11500
C3849       C  0.81464605  0.57502518  0.69521519    -0.15700
C3850       C  0.82428650  0.56231203  0.68791259    -0.29500
C3851       C  0.80932775  0.66614998  0.69723774    -0.03800
C3852       C  0.81147215  0.68031043  0.69010436    -0.40300
H3853       H  0.78071184  0.63768371  0.70926909     0.12400
H3854       H  0.78285146  0.59947455  0.70836943     0.12100
H3855       H  0.84156424  0.60369016  0.68157041     0.11500
H3856       H  0.83916591  0.64199336  0.68247022     0.11800
H3857       H  0.80786086  0.56780827  0.70202689     0.14500
H3858       H  0.83000817  0.56873722  0.68090025     0.13300
H3859       H  0.80650488  0.67184489  0.70450260     0.10900
H3860       H  0.81234447  0.67504182  0.68275581     0.13000
C3861       C  0.95720301  0.34999157  0.68249284     0.19000
C3862       C  0.92133060  0.35845268  0.68230059    -0.19000
C3863       C  0.91591342  0.38022244  0.68188313    -0.11300
C3864       C  0.94638163  0.39391161  0.68136425     0.21300
C3865       C  0.98224994  0.38548645  0.68160672    -0.20700
C3866       C  0.98767605  0.36373899  0.68231030    -0.11500
C3867       C  0.94138777  0.41675997  0.67969178    -0.15700
C3868       C  0.91580335  0.42833070  0.68427639    -0.29500
C3869       C  0.96190607  0.32684511  0.68190930    -0.03800
C3870       C  0.98951016  0.31618413  0.68615558    -0.40300
H3871       H  0.89743344  0.34814811  0.68232372     0.12400
H3872       H  0.88797587  0.38628968  0.68152716     0.12100
H3873       H  0.00611267  0.39576333  0.68111886     0.11500
H3874       H  0.01563462  0.35766298  0.68225121     0.11800
H3875       H  0.96048721  0.42449878  0.67481336     0.14500
H3876       H  0.89908293  0.42124945  0.68987679     0.13300
H3877       H  0.94088931  0.31809669  0.67805093     0.10900
H3878       H  0.00875574  0.32429318  0.69080772     0.13000
C3879       C  0.39792333  0.50035932  0.75742286     0.19000
C3880       C  0.42638622  0.49295537  0.75145106    -0.19000
C3881       C  0.42415700  0.49508807  0.74153974    -0.11300
C3882       C  0.39309130  0.50457893  0.73736248     0.21300
C3883       C  0.36472227  0.51205066  0.74333471    -0.20700
C3884       C  0.36691481  0.50988922  0.75323182    -0.11500
C3885       C  0.38871289  0.50711394  0.72688316    -0.15700
C3886       C  0.40787933  0.49645193  0.72016920    -0.29500
C3887       C  0.40160546  0.49739132  0.76790883    -0.03800
C3888       C  0.38127809  0.50747405  0.77458101    -0.40300
H3889       H  0.45063777  0.48556172  0.75447535     0.12400
H3890       H  0.44695161  0.48946840  0.73724177     0.12100
H3891       H  0.34038972  0.51937490  0.74031663     0.11500
H3892       H  0.34396342  0.51541351  0.75749522     0.11800
H3893       H  0.36663925  0.51752018  0.72458968     0.14500
H3894       H  0.42906950  0.48523849  0.72213210     0.13300
H3895       H  0.42334809  0.48682550  0.77025882     0.10900
H3896       H  0.36051533  0.51889448  0.77256661     0.13000
C3897       C  0.32262610  0.59713908  0.69365181     0.19000
C3898       C  0.32520047  0.60780557  0.70236501    -0.19000
C3899       C  0.32276621  0.62963058  0.70278852    -0.11300
C3900       C  0.31754319  0.64163754  0.69451843     0.21300
C3901       C  0.31513581  0.63107756  0.68569727    -0.20700
C3902       C  0.31765764  0.60900649  0.68527059    -0.11500
C3903       C  0.31523583  0.66494485  0.69568608    -0.15700
C3904       C  0.31052813  0.67914524  0.68864941    -0.29500
C3905       C  0.32397090  0.57372450  0.69396619    -0.03800
C3906       C  0.32754986  0.56059022  0.68646108    -0.40300
H3907       H  0.32900780  0.59918159  0.70894989     0.12400
H3908       H  0.32487116  0.63717217  0.70968264     0.12100
H3909       H  0.31116673  0.63962561  0.67912696     0.11500
H3910       H  0.31513352  0.60139115  0.67842199     0.11800
H3911       H  0.31829000  0.67081901  0.70291014     0.14500
H3912       H  0.30756943  0.67413017  0.68131700     0.13300
H3913       H  0.32252242  0.56683314  0.70104818     0.10900
H3914       H  0.33015681  0.56668165  0.67927015     0.13000
C3915       C  0.57953417  0.49402510  0.68687092     0.19000
C3916       C  0.60182063  0.48258367  0.69320014    -0.19000
C3917       C  0.64059190  0.48273389  0.69232310    -0.11300
C3918       C  0.65835895  0.49472049  0.68515644     0.21300
C3919       C  0.63599852  0.50635162  0.67890749    -0.20700
C3920       C  0.59725627  0.50612970  0.67976463    -0.11500
C3921       C  0.69980004  0.49568672  0.68398755    -0.15700
C3922       C  0.72363160  0.49075336  0.69101490    -0.29500
C3923       C  0.53810887  0.49280115  0.68778064    -0.03800
C3924       C  0.51543660  0.49519268  0.68024382    -0.40300
H3925       H  0.58913601  0.47309505  0.69873674     0.12400
H3926       H  0.65626587  0.47310485  0.69719605     0.12100
H3927       H  0.64859495  0.51586671  0.67336815     0.11500
H3928       H  0.58136545  0.51568880  0.67489794     0.11800
H3929       H  0.71092740  0.50216389  0.67740462     0.14500
H3930       H  0.71269396  0.48583510  0.69786710     0.13300
H3931       H  0.52625411  0.48822383  0.69460175     0.10900
H3932       H  0.52763542  0.49801838  0.67328010     0.13000
C3933       C  0.15830910  0.49555730  0.68415671     0.19000
C3934       C  0.13602641  0.50903328  0.67869234    -0.19000
C3935       C  0.09735667  0.50925136  0.67982587    -0.11300
C3936       C  0.07971138  0.49579078  0.68642671     0.21300
C3937       C  0.10194798  0.48241538  0.69193152    -0.20700
C3938       C  0.14057630  0.48210585  0.69076370    -0.11500
C3939       C  0.03837585  0.49499866  0.68761569    -0.15700
C3940       C  0.01499859  0.49907042  0.68038198    -0.29500
C3941       C  0.19969920  0.49618709  0.68286350    -0.03800
C3942       C  0.22347301  0.48999368  0.68969769    -0.40300
H3943       H  0.14864119  0.51966432  0.67359023     0.12400
H3944       H  0.08145645  0.52018170  0.67559156     0.12100
H3945       H  0.08929107  0.47179289  0.69703117     0.11500
H3946       H  0.15621438  0.47102445  0.69496950     0.11800
H3947       H  0.02709507  0.48903877  0.69428077     0.14500
H3948       H  0.02656190  0.50320010  0.67347801     0.13300
H3949       H  0.21084566  0.50359708  0.67648782     0.10900
H3950       H  0.21241156  0.48433917  0.69642252     0.13000
C3951       C  0.44282964  0.39025938  0.68069806     0.19000
C3952       C  0.47774873  0.38126472  0.67907957    -0.19000
C3953       C  0.48284193  0.35950815  0.67980809    -0.11300
C3954       C  0.45277693  0.34623720  0.68190284     0.21300
C3955       C  0.41783316  0.35521569  0.68353527    -0.20700
C3956       C  0.41296060  0.37705318  0.68307747    -0.11500
C3957       C  0.45653368  0.32299615  0.68152676    -0.15700
C3958       C  0.48635821  0.31263566  0.68480385    -0.29500
C3959       C  0.43775608  0.41313643  0.67901187    -0.03800
C3960       C  0.41491137  0.42534758  0.68420507    -0.40300
H3961       H  0.50107327  0.39110478  0.67712661     0.12400
H3962       H  0.50990842  0.35300148  0.67831478     0.12100
H3963       H  0.39416822  0.34526900  0.68504993     0.11500
H3964       H  0.38556411  0.38349505  0.68416681     0.11800
H3965       H  0.43342505  0.31403063  0.67869689     0.14500
H3966       H  0.50799835  0.32111673  0.68853730     0.13300
H3967       H  0.45474796  0.42039196  0.67350411     0.10900
H3968       H  0.40037879  0.41880232  0.69031646     0.13000
C3969       C  0.79588707  0.65073375  0.56161285     0.19000
C3970       C  0.76295622  0.63912166  0.56241885    -0.19000
C3971       C  0.76373230  0.61710931  0.56249849    -0.11300
C3972       C  0.79745691  0.60637016  0.56146271     0.21300
C3973       C  0.83035710  0.61801570  0.56065553    -0.20700
C3974       C  0.82968279  0.63999953  0.56087672    -0.11500
C3975       C  0.79877723  0.58322160  0.56028486    -0.15700
C3976       C  0.77678867  0.56980089  0.56511897    -0.29500
C3977       C  0.79424167  0.67389144  0.56059710    -0.03800
C3978       C  0.81785849  0.68694380  0.56503540    -0.40300
H3979       H  0.73657424  0.64711882  0.56286753     0.12400
H3980       H  0.73787619  0.60853147  0.56292526     0.12100
H3981       H  0.85659910  0.61006216  0.55972705     0.11500
H3982       H  0.85536913  0.64861082  0.56003950     0.11800
H3983       H  0.81959298  0.57694667  0.55545769     0.14500
H3984       H  0.75825694  0.57564023  0.57061790     0.13300
H3985       H  0.77231648  0.68043173  0.55622540     0.10900
H3986       H  0.83753581  0.68075424  0.57014910     0.13000
C3987       C  0.66629913  0.35313762  0.56780933     0.19000
C3988       C  0.63547355  0.36576742  0.56572992    -0.19000
C3989       C  0.63861814  0.38773663  0.56575991    -0.11300
C3990       C  0.67275586  0.39749837  0.56758891     0.21300
C3991       C  0.70375765  0.38488352  0.56943716    -0.20700
C3992       C  0.70038900  0.36293920  0.56967725    -0.11500
C3993       C  0.67451748  0.42074280  0.56849743    -0.15700
C3994       C  0.70283287  0.43253022  0.56518976    -0.29500
C3995       C  0.66323984  0.32988972  0.56877006    -0.03800
C3996       C  0.64062046  0.31789240  0.56341755    -0.40300
H3997       H  0.60864422  0.35873551  0.56446620     0.12400
H3998       H  0.61422879  0.39716598  0.56445415     0.12100
H3999       H  0.73019934  0.39200100  0.57109078     0.11500
H4000       H  0.72443921  0.35356743  0.57140905     0.11800
H4001       H  0.65093679  0.42853483  0.57177063     0.14500
H4002       H  0.72487978  0.42529279  0.56107028     0.13300
H4003       H  0.68171412  0.32224842  0.57378541     0.10900
H4004       H  0.62442780  0.32505978  0.55778376     0.13000
C4005       C  0.79921201  0.50785500  0.63645338     0.19000
C4006       C  0.76332753  0.50824726  0.63270344    -0.19000
C4007       C  0.75783805  0.50916309  0.62283134    -0.11300
C4008       C  0.78823422  0.51015049  0.61652461     0.21300
C4009       C  0.82405076  0.51093601  0.62032326    -0.20700
C4010       C  0.82955078  0.50956474  0.63017681    -0.11500
C4011       C  0.78327276  0.51027042  0.60598906    -0.15700
C4012       C  0.75652352  0.49894727  0.60175545    -0.29500
C4013       C  0.80468472  0.50564398  0.64690407    -0.03800
C4014       C  0.83108943  0.49300357  0.65041158    -0.40300
H4015       H  0.73954843  0.50728663  0.63740691     0.12400
H4016       H  0.72980467  0.50918136  0.62014559     0.12100
H4017       H  0.84786932  0.51203960  0.61563906     0.11500
H4018       H  0.85754511  0.50988595  0.63289615     0.11800
H4019       H  0.80331474  0.51868782  0.60162628     0.14500
H4020       H  0.73822193  0.48936143  0.60612651     0.13300
H4021       H  0.78599736  0.51377338  0.65172529     0.10900
H4022       H  0.84788825  0.48388501  0.64548877     0.13000
C4023       C  0.28868948  0.64888774  0.56213878     0.19000
C4024       C  0.25637993  0.63660351  0.56224103    -0.19000
C4025       C  0.25857414  0.61463228  0.56202258    -0.11300
C4026       C  0.29317433  0.60467635  0.56139702     0.21300
C4027       C  0.32542134  0.61694444  0.56136412    -0.20700
C4028       C  0.32327510  0.63884161  0.56187208    -0.11500
C4029       C  0.29620741  0.58175104  0.55985207    -0.15700
C4030       C  0.27579397  0.56765211  0.56469382    -0.29500
C4031       C  0.28592027  0.67203772  0.56123667    -0.03800
C4032       C  0.30993410  0.68524948  0.56542216    -0.40300
H4033       H  0.22944460  0.64404304  0.56232089     0.12400
H4034       H  0.23327956  0.60548728  0.56187878     0.12100
H4035       H  0.35231622  0.60955684  0.56078497     0.11500
H4036       H  0.34861126  0.64792757  0.56156221     0.11800
H4037       H  0.31700157  0.57627334  0.55482282     0.14500
H4038       H  0.25744122  0.57284355  0.57036815     0.13300
H4039       H  0.26367116  0.67837583  0.55691433     0.10900
H4040       H  0.33020486  0.67922315  0.57042089     0.13000
C4041       C  0.45409164  0.50145800  0.56216446     0.19000
C4042       C  0.47811828  0.49768212  0.55446346    -0.19000
C4043       C  0.51637216  0.49666801  0.55582769    -0.11300
C4044       C  0.53133105  0.49963577  0.56495700     0.21300
C4045       C  0.50727799  0.50343771  0.57263905    -0.20700
C4046       C  0.46912712  0.50447162  0.57127644    -0.11500
C4047       C  0.57147479  0.49826098  0.56697157    -0.15700
C4048       C  0.59875099  0.49915961  0.56038945    -0.29500
C4049       C  0.41382886  0.50297563  0.56030056    -0.03800
C4050       C  0.38733634  0.50123665  0.56705532    -0.40300
H4051       H  0.46721234  0.49536780  0.54736174     0.12400
H4052       H  0.53381579  0.49326802  0.54975272     0.12100
H4053       H  0.51809178  0.50580555  0.57974743     0.11500
H4054       H  0.45181055  0.50802300  0.57735692     0.11800
H4055       H  0.57889401  0.49675615  0.57443833     0.14500
H4056       H  0.59261665  0.50123191  0.55289319     0.13300
H4057       H  0.40567982  0.50531273  0.55292912     0.10900
H4058       H  0.39441036  0.49787850  0.57439960     0.13000
C4059       C  0.95396110  0.50579338  0.56438060     0.19000
C4060       C  0.97729768  0.50402810  0.55640441    -0.19000
C4061       C  0.01549511  0.50221673  0.55747547    -0.11300
C4062       C  0.03128028  0.50236669  0.56660712     0.21300
C4063       C  0.00791449  0.50417927  0.57459454    -0.20700
C4064       C  0.96964247  0.50593891  0.57351876    -0.11500
C4065       C  0.07161639  0.50022607  0.56823563    -0.15700
C4066       C  0.09796771  0.50096601  0.56139599    -0.29500
C4067       C  0.91373022  0.50788321  0.56269654    -0.03800
C4068       C  0.88698285  0.50487728  0.56929356    -0.40300
H4069       H  0.96587419  0.50387350  0.54927849     0.12400
H4070       H  0.03213340  0.50048746  0.55112022     0.12100
H4071       H  0.01934393  0.50434058  0.58171921     0.11500
H4072       H  0.95275912  0.50770099  0.57983937     0.11800
H4073       H  0.08002118  0.49801474  0.57559539     0.14500
H4074       H  0.09104152  0.50351345  0.55398496     0.13300
H4075       H  0.90574536  0.51144495  0.55541415     0.10900
H4076       H  0.89368447  0.50074974  0.57658079     0.13000
C4077       C  0.16831427  0.35315429  0.56757800     0.19000
C4078       C  0.13592950  0.36533631  0.56737593    -0.19000
C4079       C  0.13817222  0.38725300  0.56743271    -0.11300
C4080       C  0.17270284  0.39732955  0.56746148     0.21300
C4081       C  0.20509578  0.38516968  0.56741459    -0.20700
C4082       C  0.20285315  0.36324567  0.56758216    -0.11500
C4083       C  0.17420073  0.42041244  0.56845844    -0.15700
C4084       C  0.20008034  0.43239071  0.56419964    -0.29500
C4085       C  0.16677354  0.33002417  0.56852685    -0.03800
C4086       C  0.14034374  0.31826671  0.56445103    -0.40300
H4087       H  0.10890552  0.35798008  0.56758623     0.12400
H4088       H  0.11290011  0.39637916  0.56759059     0.12100
H4089       H  0.23206677  0.39258092  0.56766392     0.11500
H4090       H  0.22812033  0.35413187  0.56783629     0.11800
H4091       H  0.15264311  0.42787129  0.57268531     0.14500
H4092       H  0.21968592  0.42546298  0.55923460     0.13300
H4093       H  0.18891997  0.32233208  0.57241627     0.10900
H4094       H  0.12016318  0.32546085  0.55975556     0.13000
C4095       C  0.30370728  0.50408863  0.63530369     0.19000
C4096       C  0.26843872  0.50750142  0.63148044    -0.19000
C4097       C  0.26338340  0.50818114  0.62159196    -0.11300
C4098       C  0.29374615  0.50598812  0.61535605     0.21300
C4099       C  0.32922902  0.50360533  0.61918968    -0.20700
C4100       C  0.33416648  0.50243377  0.62906016    -0.11500
C4101       C  0.28891429  0.50608535  0.60484953    -0.15700
C4102       C  0.26084680  0.49569774  0.60073040    -0.29500
C4103       C  0.30848281  0.50250917  0.64579909    -0.03800
C4104       C  0.33218633  0.48865030  0.64962430    -0.40300
H4105       H  0.24468045  0.50915041  0.63614667     0.12400
H4106       H  0.23578547  0.51054414  0.61881821     0.12100
H4107       H  0.35304762  0.50215125  0.61452927     0.11500
H4108       H  0.36187858  0.50039949  0.63181044     0.11800
H4109       H  0.30986777  0.51362746  0.60044257     0.14500
H4110       H  0.24166879  0.48687258  0.60518916     0.13300
H4111       H  0.29181728  0.51245956  0.65040115     0.10900
H4112       H  0.34704236  0.47796009  0.64494897     0.13000
C4113       C  0.01592632  0.00420519  0.50938927     0.19000
C4114       C  0.04294528  0.01023527  0.50268804    -0.19000
C4115       C  0.03569496  0.00943840  0.49292316    -0.11300
C4116       C  0.00097251  0.00271119  0.48964399     0.21300
C4117       C  0.97385260  0.99681853  0.49633695    -0.20700
C4118       C  0.98108041  0.99764177  0.50610514    -0.11500
C4119       C  0.99230646  0.00054962  0.47936545    -0.15700
C4120       C  0.01108782  0.00997879  0.47220541    -0.29500
C4121       C  0.02535732  0.00548593  0.51966799    -0.03800
C4122       C  0.00592958  0.99644189  0.52682457    -0.40300
H4123       H  0.07003781  0.01536918  0.50501617     0.12400
H4124       H  0.05762859  0.01364971  0.48801803     0.12100
H4125       H  0.94684779  0.99156588  0.49399382     0.11500
H4126       H  0.95916782  0.99331168  0.51098941     0.11800
H4127       H  0.96846722  0.99085650  0.47763028     0.14500
H4128       H  0.03375368  0.02068804  0.47364373     0.13300
H4129       H  0.05056614  0.01398912  0.52139179     0.10900
H4130       H  0.98139620  0.98715960  0.52540464     0.13000
C4131       C  0.50617004  0.00862873  0.50924665     0.19000
C4132       C  0.52740717  0.02079953  0.50287522    -0.19000
C4133       C  0.51961985  0.02105945  0.49311775    -0.11300
C4134       C  0.49022640  0.00905296  0.48947270     0.21300
C4135       C  0.46852872  0.99721328  0.49586613    -0.20700
C4136       C  0.47632754  0.99693887  0.50562084    -0.11500
C4137       C  0.48091468  0.00815023  0.47914498    -0.15700
C4138       C  0.50138085  0.01633926  0.47195022    -0.29500
C4139       C  0.51668073  0.00867804  0.51951183    -0.03800
C4140       C  0.50063530  0.99705054  0.52646767    -0.40300
H4141       H  0.55040802  0.03010951  0.50545159     0.12400
H4142       H  0.53673531  0.03070685  0.48854198     0.12100
H4143       H  0.44551248  0.98791576  0.49328821     0.11500
H4144       H  0.45887600  0.98749554  0.51019649     0.11800
H4145       H  0.45578996  0.99963581  0.47735424     0.14500
H4146       H  0.52668676  0.02494035  0.47332866     0.13300
H4147       H  0.53979128  0.01877109  0.52141160     0.10900
H4148       H  0.47768301  0.98662413  0.52496336     0.13000
C4149       C  0.69348209  0.00349200  0.43630644     0.19000
C4150       C  0.71772790  0.99438060  0.42966621    -0.19000
C4151       C  0.75554632  0.99298183  0.43154527    -0.11300
C4152       C  0.77003515  0.00097801  0.44008752     0.21300
C4153       C  0.74576641  0.00978292  0.44680740    -0.20700
C4154       C  0.70786374  0.01120420  0.44492297    -0.11500
C4155       C  0.81015595  0.00011602  0.44224149    -0.15700
C4156       C  0.83645199  0.00065704  0.43542243    -0.29500
C4157       C  0.65384267  0.00539515  0.43374202    -0.03800
C4158       C  0.62604195  0.00752644  0.44009727    -0.40300
H4159       H  0.70732895  0.98824944  0.42299254     0.12400
H4160       H  0.77322850  0.98546311  0.42633403     0.12100
H4161       H  0.75629896  0.01598950  0.45345109     0.11500
H4162       H  0.69022448  0.01877204  0.45012231     0.11800
H4163       H  0.81825661  0.99994587  0.44968987     0.14500
H4164       H  0.82871089  0.00206336  0.42798422     0.13300
H4165       H  0.64724735  0.00436623  0.42620713     0.10900
H4166       H  0.63161499  0.00755515  0.44768593     0.13000
C4167       C  0.27016226  0.00690256  0.43468018     0.19000
C4168       C  0.24596099  0.01527088  0.44152332    -0.19000
C4169       C  0.20780816  0.01490136  0.44011649    -0.11300
C4170       C  0.19292599  0.00581083  0.43185642     0.21300
C4171       C  0.21712602  0.99772490  0.42491739    -0.20700
C4172       C  0.25544556  0.99813572  0.42632112    -0.11500
C4173       C  0.15250172  0.00527548  0.43009706    -0.15700
C4174       C  0.12684209  0.00581325  0.43709698    -0.29500
C4175       C  0.31017054  0.00664919  0.43689693    -0.03800
C4176       C  0.33763562  0.00514365  0.43040739    -0.40300
H4177       H  0.25665735  0.02219138  0.44800489     0.12400
H4178       H  0.19022823  0.02200181  0.44546402     0.12100
H4179       H  0.20630066  0.99078013  0.41845727     0.11500
H4180       H  0.27321762  0.99115747  0.42097970     0.11800
H4181       H  0.14361824  0.00411209  0.42272749     0.14500
H4182       H  0.13511651  0.00585556  0.44451890     0.13300
H4183       H  0.31727306  0.00823714  0.44438032     0.10900
H4184       H  0.33158673  0.00446653  0.42284811     0.13000
C4185       C  0.86197208  0.99275932  0.24013639     0.19000
C4186       C  0.83854625  0.00543399  0.24569247    -0.19000
C4187       C  0.83820619  0.00381252  0.25561877    -0.11300
C4188       C  0.86150010  0.98939866  0.26023690     0.21300
C4189       C  0.88468147  0.97658729  0.25468066    -0.20700
C4190       C  0.88502677  0.97820642  0.24476087    -0.11500
C4191       C  0.86365021  0.98735694  0.27076311    -0.15700
C4192       C  0.84585633  0.99961245  0.27714128    -0.29500
C4193       C  0.86051762  0.99512643  0.22960317    -0.03800
C4194       C  0.88078970  0.98399915  0.22330396    -0.40300
H4195       H  0.82030207  0.01669455  0.24233301     0.12400
H4196       H  0.81967508  0.01391757  0.25954563     0.12100
H4197       H  0.90292747  0.96531828  0.25803721     0.11500
H4198       H  0.90342550  0.96798499  0.24085929     0.11800
H4199       H  0.88252295  0.97544153  0.27341730     0.14500
H4200       H  0.82690466  0.01181402  0.27492139     0.13300
H4201       H  0.84062273  0.00639303  0.22686566     0.10900
H4202       H  0.90072498  0.97240662  0.22561266     0.13000
C4203       C  0.94033844  0.01066297  0.38393019     0.19000
C4204       C  0.96334143  0.00977625  0.37589193    -0.19000
C4205       C  0.94818509  0.00957878  0.36677850    -0.11300
C4206       C  0.90962787  0.01054407  0.36555977     0.21300
C4207       C  0.88665691  0.01212964  0.37360148    -0.20700
C4208       C  0.90183040  0.01202989  0.38273798    -0.11500
C4209       C  0.89279283  0.01068063  0.35598452    -0.15700
C4210       C  0.90829535  0.00085342  0.34851212    -0.29500
C4211       C  0.95752453  0.01090340  0.39343552    -0.03800
C4212       C  0.94188680  0.00178227  0.40109043    -0.40300
H4213       H  0.99312711  0.00907764  0.37667577     0.12400
H4214       H  0.96675967  0.00910590  0.36071828     0.12100
H4215       H  0.85692331  0.01327518  0.37280705     0.11500
H4216       H  0.88353711  0.01339289  0.38883097     0.11800
H4217       H  0.86625435  0.01846555  0.35514674     0.14500
H4218       H  0.93344183  0.99176246  0.34940665     0.13300
H4219       H  0.98494285  0.01783186  0.39401557     0.10900
H4220       H  0.91563507  0.99357031  0.40046313     0.13000
C4221       C  0.37530763  0.99117187  0.25985215     0.19000
C4222       C  0.40394531  0.98406836  0.25386756    -0.19000
C4223       C  0.40055098  0.98489312  0.24394766    -0.11300
C4224       C  0.36811877  0.99273926  0.23975757     0.21300
C4225       C  0.33963679  0.00007032  0.24573591    -0.20700
C4226       C  0.34301509  0.99922969  0.25566056    -0.11500
C4227       C  0.36279254  0.99392101  0.22925180    -0.15700
C4228       C  0.38284496  0.98322732  0.22271915    -0.29500
C4229       C  0.38011925  0.98912079  0.27035123    -0.03800
C4230       C  0.35882126  0.99850361  0.27703017    -0.40300
H4231       H  0.42920124  0.97784065  0.25688692     0.12400
H4232       H  0.42355056  0.97956048  0.23964815     0.12100
H4233       H  0.31434988  0.00624329  0.24270980     0.11500
H4234       H  0.31998552  0.00454698  0.25995109     0.11800
H4235       H  0.33993328  0.00356864  0.22679727     0.14500
H4236       H  0.40484846  0.97272272  0.22488296     0.13300
H4237       H  0.40325796  0.97956683  0.27270608     0.10900
H4238       H  0.33649232  0.00893794  0.27502502     0.13000
C4239       C  0.66111126  0.99387750  0.31776962     0.19000
C4240       C  0.63607047  0.00001272  0.32491035    -0.19000
C4241       C  0.59794536  0.99764582  0.32362756    -0.11300
C4242       C  0.58413386  0.98883226  0.31516448     0.21300
C4243       C  0.60931864  0.98212517  0.30816156    -0.20700
C4244       C  0.64734429  0.98452142  0.30943991    -0.11500
C4245       C  0.54403695  0.98708197  0.31302971    -0.15700
C4246       C  0.51621168  0.99138206  0.31915366    -0.29500
C4247       C  0.70125957  0.99712917  0.31937292    -0.03800
C4248       C  0.72669855  0.99790311  0.31232742    -0.40300
H4249       H  0.64602325  0.00704548  0.33144475     0.12400
H4250       H  0.57974527  0.00313288  0.32920977     0.12100
H4251       H  0.59952373  0.97510599  0.30160740     0.11500
H4252       H  0.66566365  0.97884479  0.30391206     0.11800
H4253       H  0.53708927  0.98212540  0.30584549     0.14500
H4254       H  0.52160788  0.99568568  0.32648207     0.13300
H4255       H  0.71003293  0.99956977  0.32668735     0.10900
H4256       H  0.71855697  0.99634063  0.30493510     0.13000
C4257       C  0.16053926  0.99954530  0.31237379     0.19000
C4258       C  0.13601586  0.00832990  0.31903874    -0.19000
C4259       C  0.09799406  0.00848102  0.31739284    -0.11300
C4260       C  0.08347632  0.99951519  0.30905651     0.21300
C4261       C  0.10802341  0.99103429  0.30229504    -0.20700
C4262       C  0.14620319  0.99094165  0.30393427    -0.11500
C4263       C  0.04311436  0.99887039  0.30711733    -0.15700
C4264       C  0.01688283  0.00049893  0.31393763    -0.29500
C4265       C  0.20045158  0.99916443  0.31478606    -0.03800
C4266       C  0.22837617  0.99618697  0.30852730    -0.40300
H4267       H  0.14634715  0.01519111  0.32557253     0.12400
H4268       H  0.08032938  0.01583383  0.32264364     0.12100
H4269       H  0.09756041  0.98411693  0.29578916     0.11500
H4270       H  0.16408043  0.98372671  0.29868825     0.11800
H4271       H  0.03473997  0.99599648  0.29980423     0.14500
H4272       H  0.02446343  0.00224961  0.32135975     0.13300
H4273       H  0.20716816  0.00228109  0.32219398     0.10900
H4274       H  0.22293760  0.99401976  0.30099977     0.13000
C4275       C  0.41991053  0.98215306  0.36509414     0.19000
C4276       C  0.45614133  0.98298556  0.36860430    -0.19000
C4277       C  0.46264445  0.98413412  0.37841675    -0.11300
C4278       C  0.43295162  0.98417067  0.38495188     0.21300
C4279       C  0.39679928  0.98211674  0.38145996    -0.20700
C4280       C  0.39026267  0.98130205  0.37162951    -0.11500
C4281       C  0.43908900  0.98652511  0.39539422    -0.15700
C4282       C  0.46649394  0.99865350  0.39882529    -0.29500
C4283       C  0.41376176  0.98237995  0.35461231    -0.03800
C4284       C  0.38522373  0.99277882  0.35071134    -0.40300
H4285       H  0.47944624  0.98330770  0.36372864     0.12400
H4286       H  0.49095976  0.98495983  0.38087133     0.12100
H4287       H  0.37350707  0.98172282  0.38633820     0.11500
H4288       H  0.36202476  0.97999727  0.36915128     0.11800
H4289       H  0.41956585  0.97924198  0.40029917     0.14500
H4290       H  0.48426864  0.00709449  0.39386642     0.13300
H4291       H  0.43443270  0.97522208  0.35001132     0.10900
H4292       H  0.36620589  0.00125270  0.35532056     0.13000
C4293       C  0.61100913  0.24890515  0.50728002     0.19000
C4294       C  0.59682635  0.23413597  0.50081079    -0.19000
C4295       C  0.59902791  0.23759237  0.49098442    -0.11300
C4296       C  0.61524656  0.25610261  0.48739517     0.21300
C4297       C  0.62956219  0.27082851  0.49385677    -0.20700
C4298       C  0.62732174  0.26738713  0.50368512    -0.11500
C4299       C  0.61952281  0.26026935  0.47702064    -0.15700
C4300       C  0.59997535  0.25057779  0.47013365    -0.29500
C4301       C  0.60635261  0.24478061  0.51765219    -0.03800
C4302       C  0.62391006  0.25528148  0.52466424    -0.40300
H4303       H  0.58406269  0.21976992  0.50337329     0.12400
H4304       H  0.58857933  0.22554530  0.48628064     0.12100
H4305       H  0.64232593  0.28518519  0.49128549     0.11500
H4306       H  0.63782818  0.27943665  0.50837328     0.11800
H4307       H  0.63999707  0.27198254  0.47496989     0.14500
H4308       H  0.57856487  0.23926670  0.47192023     0.13300
H4309       H  0.58688171  0.23244903  0.51960362     0.10900
H4310       H  0.64427517  0.26729797  0.52304001     0.13000
C4311       C  0.55121650  0.15324009  0.42732298     0.19000
C4312       C  0.51688334  0.14292685  0.42739439    -0.19000
C4313       C  0.51507023  0.12097313  0.42730521    -0.11300
C4314       C  0.54765102  0.10899673  0.42685469     0.21300
C4315       C  0.58198038  0.11932207  0.42661331    -0.20700
C4316       C  0.58382058  0.14127360  0.42698978    -0.11500
C4317       C  0.54637582  0.08578053  0.42623617    -0.15700
C4318       C  0.52288776  0.07418595  0.43152011    -0.29500
C4319       C  0.55229260  0.17645405  0.42684785    -0.03800
C4320       C  0.57684757  0.18809966  0.43172373    -0.40300
H4321       H  0.49144074  0.15189960  0.42751482     0.12400
H4322       H  0.48822837  0.11338256  0.42730736     0.12100
H4323       H  0.60738751  0.11036483  0.42616899     0.11500
H4324       H  0.61061385  0.14890095  0.42670547     0.11800
H4325       H  0.56685819  0.07797796  0.42179427     0.14500
H4326       H  0.50486807  0.08182882  0.43666681     0.13300
H4327       H  0.53126485  0.18424179  0.42260462     0.10900
H4328       H  0.59577381  0.18060360  0.43666480     0.13000
C4329       C  0.09776750  0.25506273  0.50919427     0.19000
C4330       C  0.06852505  0.24922029  0.50319836    -0.19000
C4331       C  0.06986801  0.25365586  0.49346611    -0.11300
C4332       C  0.10086629  0.26385327  0.48951089     0.21300
C4333       C  0.12976082  0.27008623  0.49552932    -0.20700
C4334       C  0.12844877  0.26563139  0.50526119    -0.11500
C4335       C  0.10486586  0.26775647  0.47915586    -0.15700
C4336       C  0.08712706  0.25654516  0.47245332    -0.29500
C4337       C  0.09512042  0.24949648  0.51942719    -0.03800
C4338       C  0.11591937  0.25819159  0.52631499    -0.40300
H4339       H  0.04444860  0.24119938  0.50606076     0.12400
H4340       H  0.04653496  0.24913398  0.48912606     0.12100
H4341       H  0.15395289  0.27795806  0.49264697     0.11500
H4342       H  0.15191653  0.27008412  0.50955847     0.11800
H4343       H  0.12589381  0.27901938  0.47695481     0.14500
H4344       H  0.06739967  0.24440825  0.47440292     0.13300
H4345       H  0.07363372  0.23833595  0.52143265     0.10900
H4346       H  0.13642356  0.27012189  0.52468124     0.13000
C4347       C  0.91038328  0.25269075  0.43151911     0.19000
C4348       C  0.88621693  0.25676844  0.42391916    -0.19000
C4349       C  0.84792510  0.25821036  0.42543357    -0.11300
C4350       C  0.83290713  0.25536078  0.43461664     0.21300
C4351       C  0.85707385  0.25118017  0.44218989    -0.20700
C4352       C  0.89522785  0.24968856  0.44067692    -0.11500
C4353       C  0.79261708  0.25718693  0.43676030    -0.15700
C4354       C  0.76533281  0.25582311  0.43024559    -0.29500
C4355       C  0.95091817  0.25098866  0.42958738    -0.03800
C4356       C  0.97696725  0.25331494  0.43636175    -0.40300
H4357       H  0.89705657  0.25906437  0.41678630     0.12400
H4358       H  0.83046213  0.26189361  0.41942657     0.12100
H4359       H  0.84633208  0.24884508  0.44933209     0.11500
H4360       H  0.91248069  0.24580478  0.44669727     0.11800
H4361       H  0.78507694  0.25925979  0.44420393     0.14500
H4362       H  0.77179807  0.25303873  0.42280389     0.13300
H4363       H  0.95957990  0.24798829  0.42229305     0.10900
H4364       H  0.96894376  0.25724569  0.44359450     0.13000
C4365       C  0.40741051  0.25590847  0.43058318     0.19000
C4366       C  0.39002258  0.24899013  0.43900100    -0.19000
C4367       C  0.35135546  0.24731092  0.43948373    -0.11300
C4368       C  0.32918699  0.25268405  0.43158094     0.21300
C4369       C  0.34674591  0.25934020  0.42318457    -0.20700
C4370       C  0.38526508  0.26094528  0.42269639    -0.11500
C4371       C  0.28789036  0.25172307  0.43178078    -0.15700
C4372       C  0.26824024  0.25249204  0.43991293    -0.29500
C4373       C  0.44832745  0.25665061  0.42933086    -0.03800
C4374       C  0.47387978  0.25551382  0.43633963    -0.40300
H4375       H  0.40603835  0.24432800  0.44513741     0.12400
H4376       H  0.33921781  0.24136823  0.44600251     0.12100
H4377       H  0.33057482  0.26346419  0.41697637     0.11500
H4378       H  0.39785693  0.26607412  0.41607048     0.11800
H4379       H  0.27323706  0.25199092  0.42503403     0.14500
H4380       H  0.28254836  0.25357466  0.44667027     0.13300
H4381       H  0.45793725  0.25792370  0.42200595     0.10900
H4382       H  0.46559645  0.25491606  0.44376870     0.13000
C4383       C  0.05148628  0.14902170  0.43393910     0.19000
C4384       C  0.02221438  0.13904575  0.42919547    -0.19000
C4385       C  0.01425224  0.11785559  0.43084168    -0.11300
C4386       C  0.03582576  0.10598289  0.43719094     0.21300
C4387       C  0.06449879  0.11604549  0.44214502    -0.20700
C4388       C  0.07246871  0.13733034  0.44050517    -0.11500
C4389       C  0.03003006  0.08295311  0.43840180    -0.15700
C4390       C  0.01948987  0.07081181  0.43106028    -0.29500
C4391       C  0.05961499  0.17137462  0.43157419    -0.03800
C4392       C  0.07736469  0.18481193  0.43740371    -0.40300
H4393       H  0.00541329  0.14769409  0.42416363     0.12400
H4394       H  0.99126768  0.11078684  0.42709566     0.12100
H4395       H  0.08156360  0.10723659  0.44705616     0.11500
H4396       H  0.09565923  0.14433223  0.44417868     0.11800
H4397       H  0.03839826  0.07559241  0.44504200     0.14500
H4398       H  0.01488125  0.07798501  0.42414045     0.13300
H4399       H  0.04838335  0.17737053  0.42493207     0.10900
H4400       H  0.08654990  0.17965482  0.44437362     0.13000
C4401       C  0.73936000  0.24204036  0.25842981     0.19000
C4402       C  0.72253653  0.25534938  0.25173502    -0.19000
C4403       C  0.72735344  0.25211224  0.24196197    -0.11300
C4404       C  0.74896941  0.23526157  0.23863457     0.21300
C4405       C  0.76591499  0.22200475  0.24532500    -0.20700
C4406       C  0.76108364  0.22523708  0.25510673    -0.11500
C4407       C  0.75592089  0.23140410  0.22832391    -0.15700
C4408       C  0.73572908  0.23970573  0.22119619    -0.29500
C4409       C  0.73222956  0.24599543  0.26871981    -0.03800
C4410       C  0.75017727  0.23669632  0.27601387    -0.40300
H4411       H  0.70566774  0.26843622  0.25407714     0.12400
H4412       H  0.71458301  0.26309851  0.23711286     0.12100
H4413       H  0.78284106  0.20895917  0.24296896     0.11500
H4414       H  0.77405178  0.21433961  0.25995697     0.11800
H4415       H  0.77894784  0.22116048  0.22653204     0.14500
H4416       H  0.71198569  0.24954816  0.22270885     0.13300
H4417       H  0.71064447  0.25731871  0.27035978     0.10900
H4418       H  0.77245195  0.22567088  0.27474015     0.13000
C4419       C  0.80968136  0.10251551  0.32042293     0.19000
C4420       C  0.84010898  0.11474855  0.31750053    -0.19000
C4421       C  0.83749655  0.13669413  0.31732329    -0.11300
C4422       C  0.80420134  0.14664989  0.31978420     0.21300
C4423       C  0.77372927  0.13440747  0.32260842    -0.20700
C4424       C  0.77666317  0.11254344  0.32305438    -0.11500
C4425       C  0.80222205  0.16984247  0.31990513    -0.15700
C4426       C  0.77318652  0.18036212  0.31634323    -0.29500
C4427       C  0.81216273  0.07940591  0.32137805    -0.03800
C4428       C  0.83106049  0.06716936  0.31525516    -0.40300
H4429       H  0.86616666  0.10741541  0.31564793     0.12400
H4430       H  0.86142324  0.14592207  0.31524194     0.12100
H4431       H  0.74802040  0.14179190  0.32473454     0.11500
H4432       H  0.75306389  0.10340819  0.32544942     0.11800
H4433       H  0.82592372  0.17850692  0.32259951     0.14500
H4434       H  0.75116605  0.17190459  0.31274174     0.13300
H4435       H  0.79608478  0.07210502  0.32705221     0.10900
H4436       H  0.84461340  0.07407381  0.30907580     0.13000
C4437       C  0.66871650  0.26881853  0.38266954     0.19000
C4438       C  0.70417364  0.27154302  0.37878470    -0.19000
C4439       C  0.70962303  0.27056835  0.36892463    -0.11300
C4440       C  0.67950532  0.26724729  0.36277876     0.21300
C4441       C  0.64376599  0.26586063  0.36662067    -0.20700
C4442       C  0.63838764  0.26646784  0.37648442    -0.11500
C4443       C  0.68499408  0.26471210  0.35237904    -0.15700
C4444       C  0.71319471  0.25328076  0.34892997    -0.29500
C4445       C  0.66394140  0.26812005  0.39316877    -0.03800
C4446       C  0.63922081  0.25511908  0.39723625    -0.40300
H4447       H  0.72781644  0.27373671  0.38340006     0.12400
H4448       H  0.73739728  0.27228002  0.36610465     0.12100
H4449       H  0.62014217  0.26362242  0.36200196     0.11500
H4450       H  0.61051000  0.26503231  0.37926278     0.11800
H4451       H  0.66435980  0.27105768  0.34756087     0.14500
H4452       H  0.73207386  0.24567475  0.35385350     0.13300
H4453       H  0.68212102  0.27754913  0.39759695     0.10900
H4454       H  0.62282629  0.24475934  0.39277195     0.13000
C4455       C  0.23305877  0.23835064  0.25997414     0.19000
C4456       C  0.21114627  0.24902933  0.25330577    -0.19000
C4457       C  0.21334693  0.24429116  0.24359610    -0.11300
C4458       C  0.23752188  0.22854325  0.24030255     0.21300
C4459       C  0.25869479  0.21746254  0.24701078    -0.20700
C4460       C  0.25649523  0.22221401  0.25672349    -0.11500
C4461       C  0.24348566  0.22394092  0.22999555    -0.15700
C4462       C  0.22476335  0.23293285  0.22275894    -0.29500
C4463       C  0.22956253  0.24424737  0.27020546    -0.03800
C4464       C  0.25260778  0.23786807  0.27715819    -0.40300
H4465       H  0.19251552  0.26135905  0.25560423     0.12400
H4466       H  0.19652107  0.25337764  0.23878004     0.12100
H4467       H  0.27742375  0.20517552  0.24471688     0.11500
H4468       H  0.27310089  0.21307903  0.26158109     0.11800
H4469       H  0.26593091  0.21323378  0.22826946     0.14500
H4470       H  0.20193198  0.24352413  0.22409868     0.13300
H4471       H  0.20634663  0.25424647  0.27212635     0.10900
H4472       H  0.27613443  0.22791529  0.27559378     0.13000
C4473       C  0.94109617  0.24895827  0.31256023     0.19000
C4474       C  0.96544941  0.25645235  0.31954901    -0.19000
C4475       C  0.00366143  0.25528877  0.31823134    -0.11300
C4476       C  0.01838601  0.24641773  0.30988504     0.21300
C4477       C  0.99413077  0.23910728  0.30283616    -0.20700
C4478       C  0.95581777  0.24019081  0.30416970    -0.11500
C4479       C  0.05874708  0.24572354  0.30806738    -0.15700
C4480       C  0.08432445  0.24521474  0.31502485    -0.29500
C4481       C  0.90086927  0.24951944  0.31465722    -0.03800
C4482       C  0.87379950  0.24681770  0.30818517    -0.40300
H4483       H  0.95484785  0.26328978  0.32607512     0.12400
H4484       H  0.02146822  0.26171924  0.32368013     0.12100
H4485       H  0.00489330  0.23232842  0.29631546     0.11500
H4486       H  0.93810973  0.23379345  0.29870183     0.11800
H4487       H  0.06766438  0.24552217  0.30066286     0.14500
H4488       H  0.07598593  0.24406332  0.32244472     0.13300
H4489       H  0.89323394  0.25216101  0.32205758     0.10900
H4490       H  0.88020072  0.24496739  0.30068054     0.13000
C4491       C  0.51779402  0.25131916  0.31279310     0.19000
C4492       C  0.49216273  0.25762194  0.30586898    -0.19000
C4493       C  0.45417138  0.25552670  0.30747464    -0.11300
C4494       C  0.44091699  0.24681478  0.31605233     0.21300
C4495       C  0.46650185  0.24073228  0.32302325    -0.20700
C4496       C  0.50451431  0.24281725  0.32141728    -0.11500
C4497       C  0.40083413  0.24420925  0.31813139    -0.15700
C4498       C  0.37425459  0.24413268  0.31142610    -0.29500
C4499       C  0.55785606  0.25311834  0.31049807    -0.03800
C4500       C  0.58537748  0.25110007  0.31688720    -0.40300
H4501       H  0.50157566  0.26425341  0.29916899     0.12400
H4502       H  0.43552931  0.26102137  0.30201527     0.12100
H4503       H  0.45704533  0.23404386  0.32970717     0.11500
H4504       H  0.52307598  0.23732895  0.32689026     0.11800
H4505       H  0.39302299  0.24169574  0.32553276     0.14500
H4506       H  0.38128965  0.24573497  0.30394570     0.13300
H4507       H  0.56497650  0.25620036  0.30309430     0.10900
H4508       H  0.57943718  0.24859555  0.32437477     0.13000
C4509       C  0.29684778  0.14055950  0.31905260     0.19000
C4510       C  0.26552517  0.12813613  0.31717048    -0.19000
C4511       C  0.26829507  0.10621346  0.31705534    -0.11300
C4512       C  0.30248749  0.09637838  0.31855570     0.21300
C4513       C  0.33398485  0.10878537  0.32019289    -0.20700
C4514       C  0.33103714  0.13068533  0.32056308    -0.11500
C4515       C  0.30404516  0.07320186  0.31921017    -0.15700
C4516       C  0.33174048  0.06179251  0.31545502    -0.29500
C4517       C  0.29415660  0.16365647  0.32020578    -0.29400
C4518       C  0.27093440  0.17572780  0.31511792    -0.40300
H4519       H  0.23865087  0.13528045  0.31618311     0.12400
H4520       H  0.24362519  0.09688176  0.31589022     0.12100
H4521       H  0.36051808  0.10153115  0.32156854     0.11500
H4522       H  0.35544162  0.13995164  0.32212598     0.11800
H4523       H  0.28080087  0.06518681  0.32256732     0.14500
H4524       H  0.35324772  0.06938254  0.31124800     0.13300
H4525       H  0.31314418  0.17110752  0.32515750     0.10900
H4526       H  0.25427592  0.16881108  0.30950779     0.13000
C4527       C  0.16649234  0.23351609  0.38513669     0.19000
C4528       C  0.14275368  0.23377649  0.37726309    -0.19000
C4529       C  0.15700098  0.23336822  0.36800149    -0.11300
C4530       C  0.19543184  0.23244738  0.36643036     0.21300
C4531       C  0.21915021  0.23149668  0.37431548    -0.20700
C4532       C  0.20488873  0.23218041  0.38359491    -0.11500
C4533       C  0.21142311  0.23186507  0.35667299    -0.15700
C4534       C  0.19495201  0.24102155  0.34915833    -0.29500
C4535       C  0.15015097  0.23406803  0.39483295    -0.03800
C4536       C  0.16692965  0.24326713  0.40228210    -0.40300
H4537       H  0.11305203  0.23447741  0.37828487     0.12400
H4538       H  0.13779958  0.23338676  0.36210788     0.12100
H4539       H  0.24880951  0.23042176  0.37328785     0.11500
H4540       H  0.22385833  0.23131579  0.38952968     0.11800
H4541       H  0.23831182  0.22451219  0.35573505     0.14500
H4542       H  0.16941696  0.24972618  0.35013547     0.13300
H4543       H  0.12225211  0.22792846  0.39571145     0.10900
H4544       H  0.19361871  0.25087790  0.40134634     0.13000
C4545       C  0.87362139  0.74861406  0.51185877     0.19000
C4546       C  0.85365626  0.73668132  0.50520032    -0.19000
C4547       C  0.85954975  0.73919643  0.49540659    -0.11300
C4548       C  0.88563142  0.75386275  0.49201267     0.21300
C4549       C  0.90591857  0.76561997  0.49866048    -0.20700
C4550       C  0.90004326  0.76311225  0.50844806    -0.11500
C4551       C  0.89377318  0.75700964  0.48169818    -0.15700
C4552       C  0.87351801  0.74921425  0.47444443    -0.29500
C4553       C  0.86512824  0.74561255  0.52218770    -0.03800
C4554       C  0.88154515  0.75611785  0.52936839    -0.40300
H4555       H  0.83325944  0.72531852  0.50758546     0.12400
H4556       H  0.84385524  0.72941517  0.49060368     0.12100
H4557       H  0.92644009  0.77690998  0.49626918     0.11500
H4558       H  0.91628800  0.77269571  0.51320048     0.11800
H4559       H  0.91824778  0.76626345  0.47999940     0.14500
H4560       H  0.84868114  0.74009944  0.47577105     0.13300
H4561       H  0.84330636  0.73447302  0.52395154     0.10900
H4562       H  0.90334621  0.76741466  0.52799439     0.13000
C4563       C  0.94191111  0.85485346  0.44652454     0.19000
C4564       C  0.95011226  0.86598527  0.43810295    -0.19000
C4565       C  0.94955478  0.88801185  0.43799564    -0.11300
C4566       C  0.94082252  0.89939034  0.44632266     0.21300
C4567       C  0.93259938  0.88815647  0.45468072    -0.20700
C4568       C  0.93325438  0.86623013  0.45478790    -0.11500
C4569       C  0.94041393  0.92280543  0.44681119    -0.15700
C4570       C  0.94618561  0.93583415  0.43937198    -0.29500
C4571       C  0.94330382  0.83153562  0.44720637    -0.03800
C4572       C  0.94232370  0.81829470  0.43971628    -0.40300
H4573       H  0.95779051  0.85786678  0.43163287     0.12400
H4574       H  0.95647850  0.89583308  0.43139553     0.12100
H4575       H  0.92582054  0.89638616  0.46120955     0.11500
H4576       H  0.92697849  0.85810808  0.46139052     0.11800
H4577       H  0.93480004  0.92971075  0.45374683     0.14500
H4578       H  0.95142845  0.92971617  0.43230158     0.13300
H4579       H  0.94407838  0.82492512  0.45434826     0.10900
H4580       H  0.94005812  0.82428408  0.43250731     0.13000
C4581       C  0.38390479  0.75651195  0.51204968     0.19000
C4582       C  0.37264606  0.77364455  0.50647970    -0.19000
C4583       C  0.36918790  0.77168672  0.49658632    -0.11300
C4584       C  0.37762202  0.75256424  0.49200451     0.21300
C4585       C  0.38919435  0.73550161  0.49757939    -0.20700
C4586       C  0.39260513  0.73745609  0.50746779    -0.11500
C4587       C  0.37594009  0.75004681  0.48144398    -0.15700
C4588       C  0.38147067  0.76626975  0.47547471    -0.29500
C4589       C  0.38442702  0.75866743  0.52262087    -0.03800
C4590       C  0.37616989  0.74240185  0.52835865    -0.40300
H4591       H  0.36553256  0.78844015  0.50982324     0.12400
H4592       H  0.35933957  0.78509841  0.49259948     0.12100
H4593       H  0.39620432  0.72067522  0.49425144     0.11500
H4594       H  0.40227623  0.72403821  0.51148587     0.11800
H4595       H  0.37454250  0.73424920  0.47852772     0.14500
H4596       H  0.38658794  0.78180990  0.47836232     0.13300
H4597       H  0.38687503  0.77429602  0.52567599     0.10900
H4598       H  0.36985564  0.72720672  0.52525117     0.13000
C4599       C  0.45490391  0.90491094  0.43622292     0.19000
C4600       C  0.44451431  0.89089360  0.42901025    -0.19000
C4601       C  0.44366839  0.86918593  0.43072288    -0.11300
C4602       C  0.45367259  0.86105505  0.43970897     0.21300
C4603       C  0.46529199  0.87514024  0.44678501    -0.20700
C4604       C  0.46608297  0.89674276  0.44507303    -0.11500
C4605       C  0.45261093  0.83823749  0.44215651    -0.15700
C4606       C  0.44172576  0.82276117  0.43624300    -0.29500
C4607       C  0.45349283  0.92795680  0.43445645    -0.03800
C4608       C  0.44514819  0.94143176  0.44150162    -0.40300
H4609       H  0.43619337  0.89679061  0.42210115     0.12400
H4610       H  0.43491240  0.85908030  0.42498580     0.12100
H4611       H  0.47369076  0.86942094  0.45372079     0.11500
H4612       H  0.47564477  0.90699226  0.45070028     0.11800
H4613       H  0.46134398  0.83395871  0.44930262     0.14500
H4614       H  0.43295434  0.82620697  0.42904362     0.13300
H4615       H  0.45751311  0.93377720  0.42724481     0.10900
H4616       H  0.43869297  0.93531229  0.44854398     0.13000
C4617       C  0.69066946  0.75567258  0.43649708     0.19000
C4618       C  0.66521041  0.74579522  0.43045188    -0.19000
C4619       C  0.62735561  0.74638441  0.43244334    -0.11300
C4620       C  0.61407765  0.75721749  0.44049033     0.21300
C4621       C  0.63954975  0.76707910  0.44654515    -0.20700
C4622       C  0.67742774  0.76646560  0.44455814    -0.11500
C4623       C  0.57412525  0.75850968  0.44289310    -0.15700
C4624       C  0.54681988  0.75512182  0.43657935    -0.29500
C4625       C  0.73058501  0.75443319  0.43406257    -0.03800
C4626       C  0.75790220  0.75720836  0.44042616    -0.40300
H4627       H  0.67469836  0.73732898  0.42421378     0.12400
H4628       H  0.60890886  0.73804790  0.42772553     0.12100
H4629       H  0.63006142  0.77554398  0.45278385     0.11500
H4630       H  0.69595676  0.77476207  0.44927341     0.11800
H4631       H  0.56697324  0.76334809  0.45009236     0.14500
H4632       H  0.55308777  0.75115601  0.42924194     0.13300
H4633       H  0.73768099  0.74993988  0.42681361     0.10900
H4634       H  0.75158555  0.76060924  0.44782309     0.13000
C4635       C  0.19086171  0.75006843  0.43841840     0.19000
C4636       C  0.16696371  0.74920615  0.43057606    -0.19000
C4637       C  0.12873457  0.75021377  0.43182968    -0.11300
C4638       C  0.11347534  0.75183972  0.44102737     0.21300
C4639       C  0.13736008  0.75257695  0.44888732    -0.20700
C4640       C  0.17567010  0.75160900  0.44762814    -0.11500
C4641       C  0.07310930  0.75351157  0.44277064    -0.15700
C4642       C  0.04691718  0.74917100  0.43625228    -0.29500
C4643       C  0.23117732  0.74893368  0.43655300    -0.03800
C4644       C  0.25774138  0.75369412  0.44290843    -0.40300
H4645       H  0.17795000  0.74800553  0.42340342     0.12400
H4646       H  0.11162680  0.75010312  0.42553963     0.12100
H4647       H  0.12631870  0.75383634  0.45605192     0.11500
H4648       H  0.19294670  0.75184527  0.45389084     0.11800
H4649       H  0.06460006  0.75847741  0.44985445     0.14500
H4650       H  0.05418065  0.74366008  0.42919116     0.13300
H4651       H  0.23935068  0.74423101  0.42940634     0.10900
H4652       H  0.25086307  0.75873757  0.45006978     0.13000
C4653       C  0.01248192  0.74264930  0.26069131     0.19000
C4654       C  0.99870649  0.72459993  0.25621534    -0.19000
C4655       C  0.99005860  0.72482789  0.24652308    -0.11300
C4656       C  0.99582879  0.74307297  0.24100916     0.21300
C4657       C  0.00945279  0.76117567  0.24549327    -0.20700
C4658       C  0.01797540  0.76097034  0.25521016    -0.11500
C4659       C  0.99005583  0.74337748  0.23051105    -0.15700
C4660       C  0.99428074  0.72599020  0.22521797    -0.29500
C4661       C  0.01867619  0.74205617  0.27115849    -0.03800
C4662       C  0.01399507  0.75911400  0.27662794    -0.40300
H4663       H  0.99379255  0.71038083  0.26028609     0.12400
H4664       H  0.97858305  0.71070988  0.24342197     0.12100
H4665       H  0.01437184  0.77538208  0.24141474     0.11500
H4666       H  0.02924226  0.77510001  0.25835517     0.11800
H4667       H  0.98728983  0.75847712  0.22695510     0.14500
H4668       H  0.00071463  0.71116777  0.22865517     0.13300
H4669       H  0.02164017  0.72681548  0.27458027     0.10900
H4670       H  0.00729659  0.77407670  0.27334725     0.13000
C4671       C  0.93506124  0.89773976  0.30778419     0.19000
C4672       C  0.96836542  0.88653399  0.30812693    -0.19000
C4673       C  0.96793511  0.86461583  0.30867401    -0.11300
C4674       C  0.93409505  0.85370862  0.30861324     0.21300
C4675       C  0.90087384  0.86494295  0.30818448    -0.20700
C4676       C  0.90127974  0.88682378  0.30789432    -0.11500
C4677       C  0.93270962  0.83064664  0.30803866    -0.15700
C4678       C  0.95591911  0.81809645  0.31282580    -0.29500
C4679       C  0.93586712  0.92074053  0.30676274    -0.03800
C4680       C  0.91228559  0.93307842  0.31155801    -0.40300
H4681       H  0.99463584  0.89475645  0.30793730     0.12400
H4682       H  0.99394815  0.85620210  0.30875814     0.12100
H4683       H  0.87459479  0.85673682  0.30798322     0.11500
H4684       H  0.87526967  0.89517813  0.30742095     0.11800
H4685       H  0.91119986  0.82374895  0.30363390     0.14500
H4686       H  0.97553109  0.82466377  0.31786440     0.13300
H4687       H  0.95699462  0.92770863  0.30220991     0.10900
H4688       H  0.89350829  0.92633630  0.31680676     0.13000
C4689       C  0.93658197  0.74069526  0.38482032     0.19000
C4690       C  0.91265063  0.74024493  0.37696718    -0.19000
C4691       C  0.92665692  0.73935516  0.36766886    -0.11300
C4692       C  0.96505428  0.73861950  0.36602289     0.21300
C4693       C  0.98897251  0.73829916  0.37387718    -0.20700
C4694       C  0.97497227  0.73949215  0.38318505    -0.11500
C4695       C  0.98080863  0.73777128  0.35622086    -0.15700
C4696       C  0.96472288  0.74739301  0.34876573    -0.29500
C4697       C  0.92039489  0.74153083  0.39458331    -0.03800
C4698       C  0.93798762  0.74978690  0.40216538    -0.40300
H4699       H  0.88295850  0.74074401  0.37802975     0.12400
H4700       H  0.90735315  0.73891965  0.36179641     0.12100
H4701       H  0.01862112  0.73737554  0.37280007     0.11500
H4702       H  0.99421992  0.73908232  0.38906524     0.11800
H4703       H  0.00732602  0.73003807  0.35522340     0.14500
H4704       H  0.93962102  0.75644329  0.34986253     0.13300
H4705       H  0.89219872  0.73586164  0.39546589     0.10900
H4706       H  0.96525695  0.75672859  0.40130672     0.13000
C4707       C  0.50442136  0.73336920  0.24109509     0.19000
C4708       C  0.52836616  0.72299586  0.24739667    -0.19000
C4709       C  0.52620645  0.72637816  0.25721392    -0.11300
C4710       C  0.49976663  0.74026967  0.26100290     0.21300
C4711       C  0.47557583  0.75052135  0.25470931    -0.20700
C4712       C  0.47775963  0.74714659  0.24487827    -0.11500
C4713       C  0.49627250  0.74476790  0.27137757    -0.15700
C4714       C  0.51586203  0.73533780  0.27834767    -0.29500
C4715       C  0.50910821  0.72941024  0.23071012    -0.03800
C4716       C  0.49051825  0.73923215  0.22368005    -0.40300
H4717       H  0.54920781  0.71229838  0.24470341     0.12400
H4718       H  0.54559172  0.71815268  0.26169733     0.12100
H4719       H  0.45483666  0.76127482  0.25740982     0.11500
H4720       H  0.45850342  0.75541501  0.24036917     0.11800
H4721       H  0.47569714  0.75639627  0.27339971     0.14500
H4722       H  0.53607874  0.72329331  0.27676836     0.13300
H4723       H  0.53026052  0.71808280  0.22873479     0.10900
H4724       H  0.46954744  0.75087931  0.22523379     0.13000
C4725       C  0.43103612  0.89096597  0.30782226     0.19000
C4726       C  0.46463132  0.88025828  0.30664793    -0.19000
C4727       C  0.46562590  0.85831118  0.30684055    -0.11300
C4728       C  0.43278355  0.84672003  0.30792393     0.21300
C4729       C  0.39910444  0.85740243  0.30900016    -0.20700
C4730       C  0.39824739  0.87938369  0.30909114    -0.11500
C4731       C  0.43286776  0.82354135  0.30726777    -0.15700
C4732       C  0.45851063  0.81164691  0.31157521    -0.29500
C4733       C  0.43068170  0.91412791  0.30700817    -0.03800
C4734       C  0.40909437  0.92651080  0.31243352    -0.40300
H4735       H  0.49012992  0.88891962  0.30554381     0.12400
H4736       H  0.49183376  0.85039789  0.30580199     0.12100
H4737       H  0.37345315  0.84870536  0.30973586     0.11500
H4738       H  0.37187851  0.88728984  0.30980351     0.11800
H4739       H  0.41029282  0.81599149  0.30347676     0.14500
H4740       H  0.47891936  0.81886496  0.31620594     0.13300
H4741       H  0.45031999  0.92128801  0.30208780     0.10900
H4742       H  0.39184031  0.91968932  0.31799181     0.13000
C4743       C  0.70749483  0.74314672  0.31531075     0.19000
C4744       C  0.73321117  0.73937686  0.32258117    -0.19000
C4745       C  0.77120127  0.74011740  0.32073912    -0.11300
C4746       C  0.78440704  0.74493260  0.31154859     0.21300
C4747       C  0.75872888  0.74843072  0.30424326    -0.20700
C4748       C  0.72072335  0.74769740  0.30608456    -0.11500
C4749       C  0.82446057  0.74655256  0.30922537    -0.15700
C4750       C  0.85136526  0.74882342  0.31576653    -0.29500
C4751       C  0.66743079  0.74249538  0.31777601    -0.03800
C4752       C  0.63989647  0.74183247  0.31134362    -0.40300
H4753       H  0.72386114  0.73574211  0.32974031     0.12400
H4754       H  0.78982694  0.73671032  0.32653719     0.12100
H4755       H  0.76811653  0.75212330  0.29709212     0.11500
H4756       H  0.70217462  0.75110619  0.30027385     0.11800
H4757       H  0.83193713  0.74677194  0.30171633     0.14500
H4758       H  0.84486961  0.74924672  0.32330595     0.13300
H4759       H  0.66034253  0.74207522  0.32530720     0.10900
H4760       H  0.64585794  0.74166943  0.30377479     0.13000
C4761       C  0.20681171  0.74663284  0.31421921     0.19000
C4762       C  0.23066492  0.73732621  0.32085716    -0.19000
C4763       C  0.26892704  0.73823414  0.31961312    -0.11300
C4764       C  0.28420289  0.74875843  0.31171882     0.21300
C4765       C  0.26039323  0.75805365  0.30505542    -0.20700
C4766       C  0.22205191  0.75713730  0.30629885    -0.11500
C4767       C  0.32458953  0.74972056  0.30996134    -0.15700
C4768       C  0.35048289  0.74674142  0.31671793    -0.29500
C4769       C  0.16647333  0.74533965  0.31605215    -0.03800
C4770       C  0.14010352  0.74871909  0.30947478    -0.40300
H4771       H  0.21961603  0.72910043  0.32700742     0.12400
H4772       H  0.28619284  0.73032808  0.32476031     0.12100
H4773       H  0.27152557  0.76620872  0.29889453     0.11500
H4774       H  0.20474587  0.76493032  0.30112583     0.11800
H4775       H  0.33331857  0.75354386  0.30274296     0.14500
H4776       H  0.34271351  0.74401072  0.32408632     0.13300
H4777       H  0.15815548  0.74075629  0.32321053     0.10900
H4778       H  0.14732124  0.75268010  0.30218474     0.13000
C4779       C  0.42968324  0.73805596  0.38636278     0.19000
C4780       C  0.40641639  0.74107813  0.37850124    -0.19000
C4781       C  0.42082997  0.74100923  0.36922275    -0.11300
C4782       C  0.45885278  0.73761197  0.36764028     0.21300
C4783       C  0.48179378  0.73383582  0.37549977    -0.20700
C4784       C  0.46748412  0.73417824  0.38476415    -0.11500
C4785       C  0.47545636  0.73713898  0.35793146    -0.15700
C4786       C  0.46124537  0.74740751  0.35039063    -0.29500
C4787       C  0.41387192  0.73866563  0.39614205    -0.03800
C4788       C  0.43294933  0.74631798  0.40358375    -0.40300
H4789       H  0.37709291  0.74376040  0.37955299     0.12400
H4790       H  0.40203355  0.74326046  0.36333289     0.12100
H4791       H  0.51101905  0.73078797  0.37447209     0.11500
H4792       H  0.48595801  0.73112240  0.39065510     0.11800
H4793       H  0.50127003  0.72860336  0.35705952     0.14500
H4794       H  0.43651976  0.75689380  0.35121136     0.13300
H4795       H  0.38519820  0.73393755  0.39713158     0.10900
H4796       H  0.46048901  0.75275002  0.40246262     0.13000
C4797       C  0.74942378  0.50652353  0.51082670     0.19000
C4798       C  0.76664589  0.52128315  0.50476978    -0.19000
C4799       C  0.76628343  0.51878526  0.49482895    -0.11300
C4800       C  0.74885636  0.50125874  0.49067770     0.21300
C4801       C  0.73194093  0.48644257  0.49674353    -0.20700
C4802       C  0.73231886  0.48892778  0.50666240    -0.11500
C4803       C  0.74587475  0.49808094  0.48013880    -0.15700
C4804       C  0.76536014  0.50855903  0.47337480    -0.29500
C4805       C  0.75124911  0.50976466  0.52138592    -0.03800
C4806       C  0.73056815  0.49934338  0.52794257    -0.40300
H4807       H  0.78023646  0.53495853  0.50774403     0.12400
H4808       H  0.77912516  0.53079914  0.49047705     0.12100
H4809       H  0.71831752  0.47276103  0.49378576     0.11500
H4810       H  0.71953779  0.47684877  0.51098311     0.11800
H4811       H  0.72607097  0.48629047  0.47782320     0.14500
H4812       H  0.78600837  0.52011502  0.47535627     0.13300
H4813       H  0.77094079  0.52143323  0.52388400     0.10900
H4814       H  0.71013609  0.48786895  0.52574416     0.13000
C4815       C  0.68033688  0.35871790  0.44008958     0.19000
C4816       C  0.71324030  0.36975047  0.44189292    -0.19000
C4817       C  0.71366606  0.39174246  0.44196803    -0.11300
C4818       C  0.68087444  0.40310160  0.44052281     0.21300
C4819       C  0.64790248  0.39210031  0.43876723    -0.20700
C4820       C  0.64768825  0.37009364  0.43840868    -0.11500
C4821       C  0.68012150  0.42628667  0.44156259    -0.15700
C4822       C  0.70631936  0.43881614  0.43777140    -0.29500
C4823       C  0.68025064  0.33544901  0.44081046    -0.03800
C4824       C  0.65939232  0.32292560  0.43526309    -0.40300
H4825       H  0.73862029  0.36130534  0.44332638     0.12400
H4826       H  0.73930459  0.39985388  0.44352495     0.12100
H4827       H  0.62224674  0.40056405  0.43773906     0.11500
H4828       H  0.62175396  0.36199368  0.43720958     0.11800
H4829       H  0.65671903  0.43328849  0.44525978     0.14500
H4830       H  0.72773000  0.43212889  0.43325039     0.13300
H4831       H  0.69908862  0.32833888  0.44589728     0.10900
H4832       H  0.64295316  0.32968024  0.42957115     0.13000
C4833       C  0.81394763  0.60831953  0.42882391     0.19000
C4834       C  0.81843388  0.61961401  0.42030424    -0.19000
C4835       C  0.82803223  0.64085696  0.42039834    -0.11300
C4836       C  0.83370600  0.65152710  0.42901347     0.21300
C4837       C  0.82931497  0.64030108  0.43761542    -0.20700
C4838       C  0.81958560  0.61889425  0.43751940    -0.11500
C4839       C  0.84245427  0.67443307  0.42849516    -0.15700
C4840       C  0.85265325  0.68671794  0.43586975    -0.29500
C4841       C  0.80544746  0.58542052  0.42810646    -0.03800
C4842       C  0.79480623  0.57279816  0.43536422    -0.40300
H4843       H  0.81453251  0.61194679  0.41349241     0.12400
H4844       H  0.83102670  0.64901088  0.41365618     0.12100
H4845       H  0.83297136  0.64789316  0.44442885     0.11500
H4846       H  0.81705029  0.61074209  0.44425078     0.11800
H4847       H  0.83976009  0.68169738  0.42151915     0.14500
H4848       H  0.85634962  0.68011745  0.44292352     0.13300
H4849       H  0.80857298  0.57849409  0.42107439     0.10900
H4850       H  0.79030194  0.57914910  0.44243682     0.13000
C4851       C  0.24303643  0.50593289  0.51027685     0.19000
C4852       C  0.26742577  0.51729427  0.50436172    -0.19000
C4853       C  0.26751122  0.51447701  0.49446372    -0.11300
C4854       C  0.24300582  0.50012673  0.49018211     0.21300
C4855       C  0.21860924  0.48877665  0.49609726    -0.20700
C4856       C  0.21852269  0.49159441  0.50599387    -0.11500
C4857       C  0.24104061  0.49661991  0.47965882    -0.15700
C4858       C  0.26183359  0.50658231  0.47301116    -0.29500
C4859       C  0.24496931  0.50942954  0.52080126    -0.03800
C4860       C  0.22466077  0.49917080  0.52746016    -0.40300
H4861       H  0.28671219  0.52843417  0.50741975     0.12400
H4862       H  0.28682716  0.52365016  0.49029162     0.12100
H4863       H  0.19931044  0.47764372  0.49303976     0.11500
H4864       H  0.19915468  0.48245273  0.51016365     0.11800
H4865       H  0.22028421  0.48548885  0.47722633     0.14500
H4866       H  0.28254931  0.51803111  0.47503360     0.13300
H4867       H  0.26535551  0.52078975  0.52322341     0.10900
H4868       H  0.20430131  0.48751166  0.52544451     0.13000
C4869       C  0.18887760  0.39985227  0.43915120     0.19000
C4870       C  0.15518779  0.38885083  0.43906718    -0.19000
C4871       C  0.15465526  0.36687422  0.43889423    -0.11300
C4872       C  0.18791595  0.35550119  0.43907965     0.21300
C4873       C  0.22164037  0.36648756  0.43903445    -0.20700
C4874       C  0.22217916  0.38849533  0.43892929    -0.11500
C4875       C  0.18789393  0.33242060  0.44048130    -0.15700
C4876       C  0.16340272  0.31949458  0.43629597    -0.29500
C4877       C  0.18843836  0.42296015  0.44045438    -0.03800
C4878       C  0.21283378  0.43606506  0.43627239    -0.40300
H4879       H  0.12921066  0.39730150  0.43933308     0.12400
H4880       H  0.12826498  0.35880158  0.43913573     0.12100
H4881       H  0.24758182  0.35800812  0.43929226     0.11500
H4882       H  0.24854349  0.39658179  0.43917536     0.11800
H4883       H  0.20890280  0.32581309  0.44512402     0.14500
H4884       H  0.14450521  0.32548927  0.43094609     0.13300
H4885       H  0.16624981  0.42952084  0.44477137     0.10900
H4886       H  0.23293364  0.43005262  0.43119337     0.13000
C4887       C  0.95787030  0.50150748  0.43416509     0.19000
C4888       C  0.98277296  0.51103985  0.42778740    -0.19000
C4889       C  0.02089682  0.50912589  0.42906257    -0.11300
C4890       C  0.03489820  0.49730154  0.43670244     0.21300
C4891       C  0.00994805  0.48752177  0.44300776    -0.20700
C4892       C  0.97178718  0.48950509  0.44174780    -0.11500
C4893       C  0.07505032  0.49571542  0.43869439    -0.15700
C4894       C  0.10209254  0.49986207  0.43230991    -0.29500
C4895       C  0.91775009  0.50404927  0.43244723    -0.03800
C4896       C  0.89135027  0.50228228  0.43922211    -0.40300
H4897       H  0.97266669  0.52033124  0.42187259     0.12400
H4898       H  0.03904721  0.51735394  0.42418122     0.12100
H4899       H  0.02004079  0.47830769  0.44894801     0.11500
H4900       H  0.95343247  0.48144370  0.44664506     0.11800
H4901       H  0.08261884  0.49074437  0.44583708     0.14500
H4902       H  0.09557185  0.50384997  0.42499471     0.13300
H4903       H  0.90981779  0.50847307  0.42525765     0.10900
H4904       H  0.89860497  0.49892912  0.44656096     0.13000
C4905       C  0.53508361  0.50785846  0.43835968     0.19000
C4906       C  0.51061648  0.50389826  0.44595186    -0.19000
C4907       C  0.47239376  0.50409435  0.44456543    -0.11300
C4908       C  0.45777901  0.50843342  0.43550629     0.21300
C4909       C  0.48225861  0.51247248  0.42792638    -0.20700
C4910       C  0.52045143  0.51228742  0.42931343    -0.11500
C4911       C  0.41752257  0.50893919  0.43350301    -0.15700
C4912       C  0.39040497  0.50764151  0.44010610    -0.29500
C4913       C  0.57538346  0.50713457  0.44029353    -0.03800
C4914       C  0.60209370  0.50711375  0.43356158    -0.40300
H4915       H  0.52113188  0.50044528  0.45300008     0.12400
H4916       H  0.45480903  0.50066799  0.45060791     0.12100
H4917       H  0.47178128  0.51592507  0.42087402     0.11500
H4918       H  0.53801611  0.51582052  0.42327875     0.11800
H4919       H  0.40985516  0.51095724  0.42607767     0.14500
H4920       H  0.39658093  0.50592069  0.44760920     0.13300
H4921       H  0.58338313  0.50584035  0.44772841     0.10900
H4922       H  0.59546254  0.50806350  0.42605612     0.13000
C4923       C  0.32881179  0.65235471  0.43696351     0.19000
C4924       C  0.29333435  0.64344303  0.43619259    -0.19000
C4925       C  0.28865957  0.62164338  0.43547068    -0.11300
C4926       C  0.31954674  0.60827393  0.43527541     0.21300
C4927       C  0.35504547  0.61715743  0.43615504    -0.20700
C4928       C  0.35966817  0.63896151  0.43711193    -0.11500
C4929       C  0.31575041  0.58533711  0.43337075    -0.15700
C4930       C  0.28695209  0.57356632  0.43642091    -0.29500
C4931       C  0.33275413  0.67558343  0.43628362    -0.03800
C4932       C  0.35961617  0.68707195  0.44047070    -0.40300
H4933       H  0.26915096  0.65345671  0.43591422     0.12400
H4934       H  0.26100605  0.61538380  0.43460830     0.12100
H4935       H  0.37931995  0.60720775  0.43593241     0.11500
H4936       H  0.38739453  0.64537517  0.43746626     0.11800
H4937       H  0.33839781  0.57763227  0.42964635     0.14500
H4938       H  0.26594335  0.58045477  0.44099566     0.13300
H4939       H  0.31194611  0.68374404  0.43210559     0.10900
H4940       H  0.37883889  0.67980450  0.44539685     0.13000
C4941       C  0.59592084  0.48055423  0.24166079     0.19000
C4942       C  0.56948877  0.48858668  0.24804344    -0.19000
C4943       C  0.57467857  0.48729533  0.25788180    -0.11300
C4944       C  0.60684026  0.47804473  0.26162105     0.21300
C4945       C  0.63294077  0.46958219  0.25524204    -0.20700
C4946       C  0.62769417  0.47084015  0.24537705    -0.11500
C4947       C  0.61480305  0.47717556  0.27203239    -0.15700
C4948       C  0.59570684  0.48774059  0.27877842    -0.29500
C4949       C  0.58920130  0.48333718  0.23127567    -0.03800
C4950       C  0.60911152  0.47450101  0.22418168    -0.40300
H4951       H  0.54461307  0.49603581  0.24540286     0.12400
H4952       H  0.55328570  0.49360539  0.26243421     0.12100
H4953       H  0.65792079  0.46228030  0.25789873     0.11500
H4954       H  0.64896374  0.46455440  0.24077105     0.11800
H4955       H  0.63886806  0.46815213  0.27419364     0.14500
H4956       H  0.57222573  0.49744154  0.27692941     0.13300
H4957       H  0.56576658  0.49314717  0.22937048     0.10900
H4958       H  0.63197140  0.46404043  0.22569399     0.13000
C4959       C  0.69009083  0.34906929  0.31522468     0.19000
C4960       C  0.66309213  0.36061262  0.32014530    -0.19000
C4961       C  0.66047294  0.38238964  0.31890372    -0.11300
C4962       C  0.68526364  0.39298202  0.31279838     0.21300
C4963       C  0.71287775  0.38146546  0.30810785    -0.20700
C4964       C  0.71549826  0.35977438  0.30935484    -0.11500
C4965       C  0.68218754  0.41574216  0.31071515    -0.15700
C4966       C  0.66687187  0.42978403  0.31669595    -0.29500
C4967       C  0.69033732  0.32582908  0.31596363    -0.03800
C4968       C  0.69851525  0.31381900  0.30838486    -0.40300
H4969       H  0.64318034  0.35266514  0.32468335     0.12400
H4970       H  0.63832836  0.39069551  0.32247309     0.12100
H4971       H  0.73239516  0.38927751  0.30340740     0.11500
H4972       H  0.73727192  0.35138509  0.30566230     0.11800
H4973       H  0.69436833  0.42126664  0.30407123     0.14500
H4974       H  0.65678671  0.42489642  0.32364793     0.13300
H4975       H  0.68029957  0.31852078  0.32248508     0.10900
H4976       H  0.70499309  0.32121287  0.30159744     0.13000
C4977       C  0.53992915  0.64141515  0.31288811     0.19000
C4978       C  0.56433932  0.63024222  0.30696877    -0.19000
C4979       C  0.57073463  0.60875824  0.30850078    -0.11300
C4980       C  0.55232641  0.59805340  0.31593378     0.21300
C4981       C  0.52683435  0.60912240  0.32156295    -0.20700
C4982       C  0.52046290  0.63046563  0.32002853    -0.11500
C4983       C  0.55952093  0.57569772  0.31839974    -0.15700
C4984       C  0.57472982  0.56146922  0.31247728    -0.29500
C4985       C  0.53648600  0.66459914  0.31186483    -0.03800
C4986       C  0.53188322  0.67696641  0.31954401    -0.40300
H4987       H  0.57956028  0.63832795  0.30139687     0.12400
H4988       H  0.59091194  0.60087779  0.30406830     0.12100
H4989       H  0.51195003  0.60124697  0.32725800     0.11500
H4990       H  0.50052154  0.63841772  0.32452055     0.11800
H4991       H  0.55014523  0.57047321  0.32538221     0.14500
H4992       H  0.58256450  0.56584531  0.30527445     0.13300
H4993       H  0.54130997  0.67168829  0.30492141     0.10900
H4994       H  0.53065217  0.66986809  0.32658139     0.13000
C4995       C  0.69067075  0.49409232  0.38580528     0.19000
C4996       C  0.65440171  0.49379768  0.38227810    -0.19000
C4997       C  0.64789405  0.49326054  0.37244416    -0.11300
C4998       C  0.67763299  0.49260409  0.36593513     0.21300
C4999       C  0.71383145  0.49195503  0.36947531    -0.20700
C5000       C  0.72035608  0.49288911  0.37929502    -0.11500
C5001       C  0.67152951  0.49228522  0.35545460    -0.15700
C5002       C  0.64423714  0.50338140  0.35136069    -0.29500
C5003       C  0.69696708  0.49531818  0.39627802    -0.03800
C5004       C  0.72579487  0.50593302  0.39994945    -0.40300
H5005       H  0.63106988  0.49435720  0.38713873     0.12400
H5006       H  0.61959124  0.49313173  0.36994721     0.12100
H5007       H  0.73714866  0.49110246  0.36461880     0.11500
H5008       H  0.74864977  0.49241535  0.38178379     0.11800
H5009       H  0.69080961  0.48357412  0.35101038     0.14500
H5010       H  0.62651657  0.51312247  0.35579120     0.13300
H5011       H  0.67671264  0.48821121  0.40103699     0.10900
H5012       H  0.74442350  0.51429489  0.39517188     0.13000
C5013       C  0.10218041  0.48595527  0.24104097     0.19000
C5014       C  0.07727743  0.49574656  0.24733562    -0.19000
C5015       C  0.08260317  0.49503441  0.25719398    -0.11300
C5016       C  0.11335804  0.48458418  0.26105801     0.21300
C5017       C  0.13814911  0.47461045  0.25477661    -0.20700
C5018       C  0.13279050  0.47530645  0.24489083    -0.11500
C5019       C  0.12049143  0.48341293  0.27152411    -0.15700
C5020       C  0.10353537  0.49541569  0.27817279    -0.29500
C5021       C  0.09466572  0.48750129  0.23060926    -0.03800
C5022       C  0.11339103  0.47741592  0.22363063    -0.40300
H5023       H  0.05330089  0.50395976  0.24461294     0.12400
H5024       H  0.06220427  0.50250810  0.26168981     0.12100
H5025       H  0.16201853  0.46634663  0.25752885     0.11500
H5026       H  0.15286853  0.46761542  0.24037339     0.11800
H5027       H  0.14174082  0.47248721  0.27383271     0.14500
H5028       H  0.08317505  0.50704044  0.27614061     0.13300
H5029       H  0.07139293  0.49730852  0.22857820     0.10900
H5030       H  0.13627976  0.46708138  0.22527854     0.13000
C5031       C  0.17403508  0.34754482  0.30923478     0.19000
C5032       C  0.14144415  0.35935005  0.30829214    -0.19000
C5033       C  0.14213310  0.38126701  0.30927692    -0.11300
C5034       C  0.17571067  0.39176721  0.31092640     0.21300
C5035       C  0.20827999  0.37998467  0.31184470    -0.20700
C5036       C  0.20741968  0.35805197  0.31115693    -0.11500
C5037       C  0.17820964  0.41497609  0.31046297    -0.15700
C5038       C  0.15443440  0.42802982  0.31488716    -0.29500
C5039       C  0.17308799  0.32451804  0.30753860    -0.03800
C5040       C  0.19362404  0.31087116  0.31257735    -0.40300
H5041       H  0.11548579  0.35159636  0.30670466     0.12400
H5042       H  0.11681231  0.39007387  0.30830281     0.12100
H5043       H  0.23454661  0.38782611  0.31294638     0.11500
H5044       H  0.23310179  0.34941178  0.31171634     0.11800
H5045       H  0.20115307  0.42159338  0.30641293     0.14500
H5046       H  0.13341582  0.42180837  0.31967773     0.13300
H5047       H  0.15375837  0.31854876  0.30227647     0.10900
H5048       H  0.21028476  0.31651070  0.31847496     0.13000
C5049       C  0.91127398  0.50059077  0.31531071     0.19000
C5050       C  0.88681466  0.50278112  0.32304030    -0.19000
C5051       C  0.84865531  0.50135978  0.32175611    -0.11300
C5052       C  0.83397704  0.49782344  0.31263517     0.21300
C5053       C  0.85841489  0.49560775  0.30489825    -0.20700
C5054       C  0.89663897  0.49699436  0.30618656    -0.11500
C5055       C  0.79370924  0.49566385  0.31083680    -0.15700
C5056       C  0.76685389  0.49996874  0.31723348    -0.29500
C5057       C  0.95151643  0.50205084  0.31726159    -0.03800
C5058       C  0.97875223  0.50010944  0.31072804    -0.40300
H5059       H  0.89728496  0.50546164  0.33016051     0.12400
H5060       H  0.83118668  0.50273785  0.32797935     0.12100
H5061       H  0.84788237  0.49274838  0.29779927     0.11500
H5062       H  0.91419950  0.49516504  0.30000569     0.11800
H5063       H  0.78582371  0.49017047  0.30379994     0.14500
H5064       H  0.77333921  0.50577165  0.32428169     0.13300
H5065       H  0.95910069  0.50488381  0.32463616     0.10900
H5066       H  0.97274979  0.49735093  0.30328219     0.13000
C5067       C  0.33373250  0.48880749  0.31506609     0.19000
C5068       C  0.35853650  0.47744622  0.30934318    -0.19000
C5069       C  0.39666124  0.47912906  0.31071880    -0.11300
C5070       C  0.41074556  0.49249809  0.31780044     0.21300
C5071       C  0.38591854  0.50372517  0.32357762    -0.20700
C5072       C  0.34778495  0.50202677  0.32220687    -0.11500
C5073       C  0.45092503  0.49494524  0.31954841    -0.15700
C5074       C  0.47749929  0.49069556  0.31306910    -0.29500
C5075       C  0.29370513  0.48729286  0.31296976    -0.03800
C5076       C  0.26656761  0.49211218  0.31920065    -0.40300
H5077       H  0.34834699  0.46716741  0.30378806     0.12400
H5078       H  0.41478664  0.46976630  0.30629533     0.12100
H5079       H  0.39610365  0.51413192  0.32908400     0.11500
H5080       H  0.32963635  0.51147012  0.32659134     0.11800
H5081       H  0.45881959  0.50144412  0.32640577     0.14500
H5082       H  0.47040810  0.48516711  0.30600120     0.13300
H5083       H  0.28632698  0.48162256  0.30592468     0.10900
H5084       H  0.27298829  0.49669016  0.32645178     0.13000
C5085       C  0.05347014  0.64604781  0.31606780     0.19000
C5086       C  0.08692985  0.63551060  0.31773167    -0.19000
C5087       C  0.08862340  0.61354424  0.31752633    -0.11300
C5088       C  0.05655348  0.60159644  0.31591106     0.21300
C5089       C  0.02305476  0.61211585  0.31416339    -0.20700
C5090       C  0.02158343  0.63416681  0.31409557    -0.11500
C5091       C  0.05676656  0.57834353  0.31703913    -0.15700
C5092       C  0.08513691  0.56604608  0.31423870    -0.29500
C5093       C  0.05212465  0.66917390  0.31747522    -0.03800
C5094       C  0.03149124  0.68243601  0.31222250    -0.40300
H5095       H  0.11175230  0.64433247  0.31938068     0.12400
H5096       H  0.11463826  0.60591304  0.31910709     0.12100
H5097       H  0.99786735  0.60323342  0.31301672     0.11500
H5098       H  0.99525151  0.64185822  0.31297742     0.11800
H5099       H  0.03241274  0.57103109  0.32019441     0.14500
H5100       H  0.10805433  0.57274997  0.31022639     0.13300
H5101       H  0.07039285  0.67568147  0.32285998     0.10900
H5102       H  0.01565284  0.67655109  0.30622776     0.13000
C5103       C  0.19327112  0.49346034  0.38550249     0.19000
C5104       C  0.15658190  0.49247458  0.38230867    -0.19000
C5105       C  0.14872898  0.49179896  0.37255052    -0.11300
C5106       C  0.17754246  0.49162775  0.36577198     0.21300
C5107       C  0.21428018  0.49172747  0.36898290    -0.20700
C5108       C  0.22212724  0.49287783  0.37874376    -0.11500
C5109       C  0.16989480  0.49099833  0.35535384    -0.15700
C5110       C  0.14113197  0.50128968  0.35147742    -0.29500
C5111       C  0.20067962  0.49456411  0.39591135    -0.03800
C5112       C  0.22834330  0.50621655  0.39954739    -0.40300
H5113       H  0.13391233  0.49256615  0.38738069     0.12400
H5114       H  0.12010709  0.49111908  0.37032684     0.12100
H5115       H  0.23694822  0.49127722  0.36391553     0.11500
H5116       H  0.25073488  0.49302158  0.38100228     0.11800
H5117       H  0.18939184  0.48289082  0.35073938     0.14500
H5118       H  0.12334624  0.51072538  0.35602478     0.13300
H5119       H  0.18168493  0.48652794  0.40071246     0.10900
H5120       H  0.24573357  0.51542685  0.39478106     0.13000
loop_ 
_geom_bond_atom_site_label_1 
_geom_bond_atom_site_label_2 
_geom_bond_distance 
_geom_bond_site_symmetry_2 
_ccdc_geom_bond_type 
O1           Ni7   1.931       .  S
O1           C22   1.273       .  A
O2          Ni25   1.915       .  S
O2           C11   1.270       .  A
O3           Ni7   1.904       .  S
O3          Ni25   1.905       .  S
O3          Ni19   1.908       .  S
O3           H26   0.966       .  S
C4           O21   1.275       .  A
C4           O13   1.276       .  A
C4         C5076   1.476       .  S
O5          Ni24   1.931       .  S
O5           C11   1.272       .  A
O6          Ni24   1.904       .  S
O6            C8   1.269       .  A
Ni7          O10   1.912       .  S
Ni7          O12   1.914       .  S
C8           O18   1.275       .  A
C8         C5038   1.480       .  S
O9          Ni25   1.923       .  S
O9           C15   1.277       .  A
O10          C15   1.277       .  A
C11        C5020   1.483       .  S
O12          C14   1.270       .  A
O13         Ni24   1.915       .  S
C14          O20   1.273       .  A
C14        C5092   1.480       .  S
C15        C5058   1.476   1_455  S
H16          O17   0.966       .  S
O17         Ni25   1.910       .  S
O17         Ni19   1.911       .  S
O17         Ni24   1.908       .  S
O18         Ni19   1.941       .  S
Ni19         O23   1.918       .  S
Ni19         O21   1.919       .  S
O20         Ni25   1.936       .  S
C22          O23   1.272       .  A
C22        C5110   1.481       .  S
O27         Ni33   1.926       .  S
O27          C48   1.269       .  A
O28         Ni51   1.909       .  S
O28          C37   1.267       .  A
O29         Ni33   1.908       .  S
O29         Ni51   1.907       .  S
O29         Ni45   1.909       .  S
O29          H52   0.966       .  S
C30          O47   1.274       .  A
C30          O39   1.275       .  A
C30        C5056   1.475       .  S
O31         Ni50   1.929       .  S
O31          C37   1.271       .  A
O32         Ni50   1.903       .  S
O32          C34   1.269       .  A
Ni33         O36   1.917       .  S
Ni33         O38   1.908       .  S
C34          O44   1.271       .  A
C34        C4966   1.476       .  S
O35         Ni51   1.919       .  S
O35          C41   1.276       .  A
O36          C41   1.276       .  A
C37        C4948   1.478       .  S
O38          C40   1.270       .  A
O39         Ni50   1.916       .  S
C40          O46   1.270       .  A
C40        C4984   1.481       .  S
C41        C5074   1.476       .  S
H42          O43   0.966       .  S
O43         Ni51   1.913       .  S
O43         Ni45   1.915       .  S
O43         Ni50   1.914       .  S
O44         Ni45   1.927       .  S
Ni45         O49   1.919       .  S
Ni45         O47   1.915       .  S
O46         Ni51   1.927       .  S
C48          O49   1.270       .  A
C48        C5002   1.479       .  S
O53         Ni59   1.932       .  S
O53          C74   1.273       .  A
O54         Ni77   1.917       .  S
O54          C63   1.270       .  A
O55         Ni59   1.905       .  S
O55         Ni77   1.905       .  S
O55         Ni71   1.910       .  S
O55          H78   0.966       .  S
C56          O73   1.276       .  A
C56          O65   1.276       .  A
C56        C4894   1.477       .  S
O57         Ni76   1.929       .  S
O57          C63   1.272       .  A
O58         Ni76   1.909       .  S
O58          C60   1.270       .  A
Ni59         O62   1.912       .  S
Ni59         O64   1.917       .  S
C60          O70   1.271       .  A
C60        C4878   1.477       .  S
O61         Ni77   1.923       .  S
O61          C67   1.277       .  A
O62          C67   1.277       .  A
C63        C4858   1.484       .  S
O64          C66   1.271       .  A
O65         Ni76   1.915       .  S
C66          O72   1.273       .  A
C66        C4930   1.482       .  S
C67        C4912   1.476       .  S
H68          O69   0.966       .  S
O69         Ni77   1.912       .  S
O69         Ni71   1.909       .  S
O69         Ni76   1.910       .  S
O70         Ni71   1.931       .  S
Ni71         O75   1.915       .  S
Ni71         O73   1.921       .  S
O72         Ni77   1.933       .  S
C74          O75   1.271       .  A
C74        C5112   1.482       .  S
O79         Ni85   1.926       .  S
O79         C100   1.270       .  A
O80        Ni103   1.926       .  S
O80          C89   1.272       .  A
O81         Ni85   1.901       .  S
O81        Ni103   1.911       .  S
O81         Ni97   1.909       .  S
O81         H104   0.966       .  S
C82          O99   1.275       .  A
C82          O91   1.276       .  A
C82        C4914   1.475       .  S
O83        Ni102   1.928       .  S
O83          C89   1.272       .  A
O84        Ni102   1.914       .  S
O84          C86   1.270       .  A
Ni85         O88   1.913       .  S
Ni85         O90   1.905       .  S
C86          O96   1.271       .  A
C86        C4822   1.476       .  S
O87        Ni103   1.925       .  S
O87          C93   1.278       .  A
O88          C93   1.277       .  A
C89        C4804   1.490       .  S
O90          C92   1.270       .  A
O91        Ni102   1.915       .  S
C92          O98   1.274       .  A
C92        C4842   1.487       .  S
C93        C4896   1.477       .  S
H94          O95   0.966       .  S
O95        Ni103   1.915       .  S
O95         Ni97   1.913       .  S
O95        Ni102   1.913       .  S
O96         Ni97   1.928       .  S
Ni97        O101   1.922       .  S
Ni97         O99   1.917       .  S
O98        Ni103   1.938       .  S
C100        O101   1.271       .  A
C100       C5004   1.480       .  S
O105       Ni111   1.938       .  S
O105        C126   1.274       .  A
O106       Ni129   1.915       .  S
O106        C115   1.269       .  A
O107       Ni111   1.909       .  S
O107       Ni129   1.916       .  S
O107       Ni123   1.915       .  S
O107        H130   0.966       .  S
C108        O125   1.277       .  A
C108        O117   1.276       .  A
C108       C4768   1.474       .  S
O109       Ni128   1.920       .  S
O109        C115   1.270       .  A
O110       Ni128   1.907       .  S
O110        C112   1.268       .  A
Ni111       O114   1.928       .  S
Ni111       O116   1.901       .  S
C112        O122   1.268       .  A
C112       C4732   1.471       .  S
O113       Ni129   1.910       .  S
O113        C119   1.272       .  A
O114        C119   1.277       .  A
C115       C4714   1.478       .  S
O116        C118   1.268       .  A
O117       Ni128   1.911       .  S
C118        O124   1.275       .  A
C118       C4986   1.474       .  S
C119       C4752   1.477       .  S
H120        O121   0.967       .  S
O121       Ni129   1.907       .  S
O121       Ni123   1.900       .  S
O121       Ni128   1.910       .  S
O122       Ni123   1.924       .  S
Ni123       O127   1.903       .  S
Ni123       O125   1.921       .  S
O124       Ni129   1.937       .  S
C126        O127   1.266       .  A
C126       C4786   1.480       .  S
O131       Ni137   1.945       .  S
O131        C152   1.277   1_455  A
O132       Ni155   1.926       .  S
O132        C141   1.272       .  A
O133       Ni137   1.902       .  S
O133       Ni155   1.912       .  S
O133       Ni149   1.908   1_455  S
O133        H156   0.966       .  S
C134        O151   1.279       .  A
C134        O143   1.278       .  A
C134       C4750   1.476       .  S
O135       Ni154   1.918       .  S
O135        C141   1.265   1_655  A
O136       Ni154   1.900       .  S
O136        C138   1.266       .  A
Ni137       O140   1.924       .  S
Ni137       O142   1.909       .  S
C138        O148   1.266       .  A
C138       C4678   1.469       .  S
O139       Ni155   1.912       .  S
O139        C145   1.274       .  A
O140        C145   1.278       .  A
C141       C4662   1.470       .  S
O142        C144   1.272       .  A
O143       Ni154   1.915       .  S
C144        O150   1.276       .  A
C144       C5094   1.483       .  S
C145       C4770   1.476       .  S
H146        O147   0.966       .  S
O147       Ni155   1.905   1_655  S
O147       Ni149   1.892       .  S
O147       Ni154   1.898       .  S
O148       Ni149   1.922       .  S
Ni149       O153   1.898       .  S
Ni149       O151   1.927       .  S
O150       Ni155   1.941       .  S
C152        O153   1.266       .  A
C152       C4696   1.479       .  S
O157       Ni163   1.939       .  S
O157        C178   1.274       .  A
O158       Ni181   1.930       .  S
O158        C167   1.274       .  A
O159       Ni163   1.906       .  S
O159       Ni181   1.917       .  S
O159       Ni175   1.913       .  S
O159        H182   0.966       .  S
C160        O177   1.276       .  A
C160        O169   1.279       .  A
C160       C4624   1.474       .  S
O161       Ni180   1.922       .  S
O161        C167   1.268       .  A
O162       Ni180   1.907       .  S
O162        C164   1.267       .  A
Ni163       O166   1.914       .  S
Ni163       O168   1.904       .  S
C164        O174   1.268       .  A
C164       C4606   1.480       .  S
O165       Ni181   1.917       .  S
O165        C171   1.274       .  A
O166        C171   1.275       .  A
C167       C4588   1.475       .  S
O168        C170   1.272       .  A
O169       Ni180   1.922       .  S
C170        O176   1.279       .  A
C170       C4932   1.484       .  S
C171       C4644   1.475       .  S
H172        O173   0.966       .  S
O173       Ni181   1.905       .  S
O173       Ni175   1.894       .  S
O173       Ni180   1.904       .  S
O174       Ni175   1.925       .  S
Ni175       O179   1.898       .  S
Ni175       O177   1.916       .  S
O176       Ni181   1.949       .  S
C178        O179   1.264       .  A
C178       C4788   1.476       .  S
O183       Ni189   1.937       .  S
O183        C204   1.273       .  A
O184       Ni207   1.913       .  S
O184        C193   1.268       .  A
O185       Ni189   1.916       .  S
O185       Ni207   1.916       .  S
O185       Ni201   1.912       .  S
O185        H208   0.967       .  S
C186        O203   1.272   1_455  A
C186        O195   1.274   1_455  A
C186       C4642   1.473       .  S
O187       Ni206   1.924       .  S
O187        C193   1.269       .  A
O188       Ni206   1.901       .  S
O188        C190   1.268       .  A
Ni189       O192   1.925       .  S
Ni189       O194   1.906       .  S
C190        O200   1.272       .  A
C190       C4572   1.481       .  S
O191       Ni207   1.907       .  S
O191        C197   1.271       .  A
O192        C197   1.276       .  A
C193       C4552   1.480       .  S
O194        C196   1.271       .  A
O195       Ni206   1.917       .  S
C196        O202   1.274       .  A
C196       C4840   1.486       .  S
C197       C4626   1.474       .  S
H198        O199   0.967       .  S
O199       Ni207   1.907       .  S
O199       Ni201   1.911       .  S
O199       Ni206   1.917       .  S
O200       Ni201   1.936       .  S
Ni201       O205   1.908       .  S
Ni201       O203   1.909       .  S
O202       Ni207   1.936       .  S
C204        O205   1.267       .  A
C204       C4698   1.482       .  S
O209       Ni215   1.937       .  S
O209        C230   1.274       .  A
O210       Ni233   1.908       .  S
O210        C219   1.267       .  A
O211       Ni215   1.912       .  S
O211       Ni233   1.906       .  S
O211       Ni227   1.912       .  S
O211        H234   0.966       .  S
C212        O229   1.275       .  A
C212        O221   1.276       .  A
C212       C4480   1.475       .  S
O213       Ni232   1.926       .  S
O213        C219   1.272       .  A
O214       Ni232   1.915       .  S
O214        C216   1.271       .  A
Ni215       O218   1.921       .  S
Ni215       O220   1.911       .  S
C216        O226   1.271       .  A
C216       C5040   1.478       .  S
O217       Ni233   1.917       .  S
O217        C223   1.275       .  A
O218        C223   1.277       .  A
C219       C4464   1.477       .  S
O220        C222   1.271       .  A
O221       Ni232   1.917       .  S
C222        O228   1.271       .  A
C222       C4518   1.476       .  S
C223       C4498   1.476       .  S
H224        O225   0.966       .  S
O225       Ni233   1.910       .  S
O225       Ni227   1.901       .  S
O225       Ni232   1.912       .  S
O226       Ni227   1.927       .  S
Ni227       O231   1.901       .  S
Ni227       O229   1.919       .  S
O228       Ni233   1.927       .  S
C230        O231   1.266       .  A
C230       C4534   1.475       .  S
O235       Ni241   1.922       .  S
O235        C256   1.269       .  A
O236       Ni259   1.911       .  S
O236        C245   1.268       .  A
O237       Ni241   1.907       .  S
O237       Ni259   1.903       .  S
O237       Ni253   1.911       .  S
O237        H260   0.966       .  S
C238        O255   1.272       .  A
C238        O247   1.276       .  A
C238       C4500   1.477       .  S
O239       Ni258   1.926       .  S
O239        C245   1.271       .  A
O240       Ni258   1.897       .  S
O240        C242   1.265       .  A
Ni241       O244   1.909       .  S
Ni241       O246   1.911       .  S
C242        O252   1.274       .  A
C242       C4968   1.470       .  S
O243       Ni259   1.929       .  S
O243        C249   1.278       .  A
O244        C249   1.275       .  A
C245       C4410   1.480       .  S
O246        C248   1.269       .  A
O247       Ni258   1.927       .  S
C248        O254   1.270       .  A
C248       C4426   1.472       .  S
C249       C4482   1.478       .  S
H250        O251   0.966       .  S
O251       Ni259   1.914       .  S
O251       Ni253   1.914       .  S
O251       Ni258   1.907       .  S
O252       Ni253   1.937       .  S
Ni253       O257   1.914       .  S
Ni253       O255   1.909       .  S
O254       Ni259   1.924       .  S
C256        O257   1.269       .  A
C256       C4444   1.473       .  S
O261       Ni267   1.936       .  S
O261        C282   1.276       .  A
O262       Ni285   1.904       .  S
O262        C271   1.265       .  A
O263       Ni267   1.909       .  S
O263       Ni285   1.902       .  S
O263       Ni279   1.925       .  S
O263        H286   0.967       .  S
C264        O281   1.284       .  A
C264        O273   1.274       .  A
C264       C4372   1.478       .  S
O265       Ni284   1.921       .  S
O265        C271   1.270       .  A
O266       Ni284   1.909       .  S
O266        C268   1.269       .  A
Ni267       O270   1.935       .  S
Ni267       O272   1.913       .  S
C268        O278   1.270       .  A
C268       C4876   1.475       .  S
O269       Ni285   1.914       .  S
O269        C275   1.274       .  A
O270        C275   1.278       .  A
C271       C4336   1.471       .  S
O272        C274   1.271       .  A
O273       Ni284   1.911       .  S
C274        O280   1.272       .  A
C274       C4392   1.481       .  S
C275       C4356   1.481   1_455  S
H276        O277   0.970       .  S
O277       Ni285   1.910       .  S
O277       Ni279   1.896       .  S
O277       Ni284   1.905       .  S
O278       Ni279   1.929       .  S
Ni279       O283   1.902       .  S
Ni279       O281   1.941       .  S
O280       Ni285   1.929       .  S
C282        O283   1.269       .  A
C282       C4536   1.476       .  S
O287       Ni293   1.918       .  S
O287        C308   1.268       .  A
O288       Ni311   1.911       .  S
O288        C297   1.270       .  A
O289       Ni293   1.900       .  S
O289       Ni311   1.900       .  S
O289       Ni305   1.916       .  S
O289        H312   0.966       .  S
C290        O307   1.277       .  A
C290        O299   1.278       .  A
C290       C4354   1.484       .  S
O291       Ni310   1.929       .  S
O291        C297   1.273       .  A
O292       Ni310   1.908       .  S
O292        C294   1.270       .  A
Ni293       O296   1.909       .  S
Ni293       O298   1.907       .  S
C294        O304   1.273       .  A
C294       C4824   1.479       .  S
O295       Ni311   1.944       .  S
O295        C301   1.283       .  A
O296        C301   1.276       .  A
C297       C4300   1.479       .  S
O298        C300   1.268       .  A
O299       Ni310   1.926       .  S
C300        O306   1.270       .  A
C300       C4320   1.476       .  S
C301       C4374   1.487       .  S
H302        O303   0.966       .  S
O303       Ni311   1.922       .  S
O303       Ni305   1.905       .  S
O303       Ni310   1.905       .  S
O304       Ni305   1.933       .  S
Ni305       O309   1.918       .  S
Ni305       O307   1.925       .  S
O306       Ni311   1.928       .  S
C308        O309   1.271       .  A
C308       C4446   1.472       .  S
O313       Ni319   1.926       .  S
O313        C334   1.270   1_545  A
O314       Ni337   1.916   1_545  S
O314        C323   1.269   1_545  A
O315       Ni319   1.905   1_565  S
O315       Ni337   1.908       .  S
O315       Ni331   1.913       .  S
O315        H338   0.966       .  S
C316        O333   1.276       .  A
C316        O325   1.276       .  A
C316       C4246   1.478       .  S
O317       Ni336   1.927       .  S
O317        C323   1.271       .  A
O318       Ni336   1.902       .  S
O318        C320   1.269       .  A
Ni319       O322   1.912   1_545  S
Ni319       O324   1.908       .  S
C320        O330   1.272       .  A
C320       C4734   1.475       .  S
O321       Ni337   1.928       .  S
O321        C327   1.277       .  A
O322        C327   1.276       .  A
C323       C4230   1.482       .  S
O324        C326   1.269       .  A
O325       Ni336   1.916       .  S
C326        O332   1.271       .  A
C326       C4516   1.474       .  S
C327       C4266   1.480       .  S
H328        O329   0.966   1_545  S
O329       Ni337   1.913       .  S
O329       Ni331   1.910       .  S
O329       Ni336   1.906       .  S
O330       Ni331   1.931       .  S
Ni331       O335   1.920       .  S
Ni331       O333   1.920       .  S
O332       Ni337   1.928   1_545  S
C334        O335   1.271       .  A
C334       C4284   1.479       .  S
O339       Ni345   1.931       .  S
O339        C360   1.274       .  A
O340       Ni363   1.917       .  S
O340        C349   1.270   1_545  A
O341       Ni345   1.901   1_565  S
O341       Ni363   1.904   1_565  S
O341       Ni357   1.910       .  S
O341        H364   0.966       .  S
C342        O359   1.278       .  A
C342        O351   1.277       .  A
C342       C4264   1.476   1_665  S
O343       Ni362   1.916       .  S
O343        C349   1.269       .  A
O344       Ni362   1.903       .  S
O344        C346   1.267       .  A
Ni345       O348   1.919       .  S
Ni345       O350   1.905       .  S
C346        O356   1.265       .  A
C346       C4680   1.464       .  S
O347       Ni363   1.919       .  S
O347        C353   1.276       .  A
O348        C353   1.277       .  A
C349       C4192   1.476       .  S
O350        C352   1.270       .  A
O351       Ni362   1.917       .  S
C352        O358   1.273       .  A
C352       C4428   1.477       .  S
C353       C4248   1.475   1_545  S
H354        O355   0.966       .  S
O355       Ni363   1.913       .  S
O355       Ni357   1.892   1_545  S
O355       Ni362   1.902   1_545  S
O356       Ni357   1.915       .  S
Ni357       O361   1.895       .  S
Ni357       O359   1.924       .  S
O358       Ni363   1.931       .  S
C360        O361   1.264   1_545  A
C360       C4210   1.468       .  S
O365       Ni371   1.929       .  S
O365        C386   1.271       .  A
O366       Ni389   1.918       .  S
O366        C375   1.269       .  A
O367       Ni371   1.908       .  S
O367       Ni389   1.907       .  S
O367       Ni383   1.911       .  S
O367        H390   0.966   1_545  S
C368        O385   1.273       .  A
C368        O377   1.273       .  A
C368       C4176   1.479       .  S
O369       Ni388   1.922       .  S
O369        C375   1.270       .  A
O370       Ni388   1.895   1_565  S
O370        C372   1.267       .  A
Ni371       O374   1.919       .  S
Ni371       O376   1.911       .  S
C372        O382   1.276       .  A
C372       C4608   1.474       .  S
O373       Ni389   1.923       .  S
O373        C379   1.277       .  A
O374        C379   1.277       .  A
C375       C4138   1.483       .  S
O376        C378   1.269       .  A
O377       Ni388   1.911       .  S
C378        O384   1.270       .  A
C378       C4318   1.475       .  S
C379       C4158   1.479       .  S
H380        O381   0.966       .  S
O381       Ni389   1.917       .  S
O381       Ni383   1.920       .  S
O381       Ni388   1.907       .  S
O382       Ni383   1.941   1_565  S
Ni383       O387   1.920   1_545  S
Ni383       O385   1.921       .  S
O384       Ni389   1.924       .  S
C386        O387   1.272   1_545  A
C386       C4282   1.479   1_545  S
O391       Ni397   1.926   1_655  S
O391        C412   1.271       .  A
O392       Ni415   1.916       .  S
O392        C401   1.270       .  A
O393       Ni397   1.906   1_565  S
O393       Ni415   1.912   1_565  S
O393       Ni409   1.913   1_455  S
O393        H416   0.966       .  S
C394        O411   1.274   1_565  A
C394        O403   1.277       .  A
C394       C4156   1.476   1_565  S
O395       Ni414   1.921       .  S
O395        C401   1.271   1_665  A
O396       Ni414   1.908       .  S
O396        C398   1.268       .  A
Ni397       O400   1.918       .  S
Ni397       O402   1.899       .  S
C398        O408   1.269       .  A
C398       C4570   1.480       .  S
O399       Ni415   1.919       .  S
O399        C405   1.275       .  A
O400        C405   1.275       .  A
C401       C4120   1.478       .  S
O402        C404   1.267       .  A
O403       Ni414   1.926       .  S
C404        O410   1.276       .  A
C404       C4390   1.475       .  S
C405       C4174   1.476       .  S
H406        O407   0.966       .  S
O407       Ni415   1.914   1_655  S
O407       Ni409   1.900   1_545  S
O407       Ni414   1.911   1_545  S
O408       Ni409   1.926       .  S
Ni409       O413   1.898       .  S
Ni409       O411   1.913   1_565  S
O410       Ni415   1.941       .  S
C412        O413   1.263   1_545  A
C412       C4212   1.470       .  S
O417       Ni423   1.928       .  S
O417        C438   1.272       .  A
O418       Ni441   1.922       .  S
O418        C427   1.271       .  A
O419       Ni423   1.908       .  S
O419       Ni441   1.910       .  S
O419       Ni435   1.913       .  S
O419        H442   0.966       .  S
C420        O437   1.279       .  A
C420        O429   1.275       .  A
C420       C4066   1.476       .  S
O421       Ni440   1.921       .  S
O421        C427   1.268       .  A
O422       Ni440   1.905       .  S
O422        C424   1.269       .  A
Ni423       O426   1.917       .  S
Ni423       O428   1.909       .  S
C424        O434   1.270       .  A
C424       C4084   1.472       .  S
O425       Ni441   1.919       .  S
O425        C431   1.276       .  A
O426        C431   1.276       .  A
C427       C4102   1.478       .  S
O428        C430   1.270       .  A
O429       Ni440   1.906       .  S
C430        O436   1.271       .  A
C430       C4030   1.475       .  S
C431       C4050   1.476       .  S
H432        O433   0.966       .  S
O433       Ni441   1.912       .  S
O433       Ni435   1.906       .  S
O433       Ni440   1.901       .  S
O434       Ni435   1.926       .  S
Ni435       O439   1.918       .  S
Ni435       O437   1.929       .  S
O436       Ni441   1.928       .  S
C438        O439   1.270       .  A
C438       C4860   1.484       .  S
O443       Ni449   1.928       .  S
O443        C464   1.271       .  A
O444       Ni467   1.924       .  S
O444        C453   1.272       .  A
O445       Ni449   1.908       .  S
O445       Ni467   1.912       .  S
O445       Ni461   1.912       .  S
O445        H468   0.966       .  S
C446        O463   1.279       .  A
C446        O455   1.276       .  A
C446       C4048   1.479       .  S
O447       Ni466   1.926       .  S
O447        C453   1.270       .  A
O448       Ni466   1.911       .  S
O448        C450   1.270       .  A
Ni449       O452   1.911       .  S
Ni449       O454   1.907       .  S
C450        O460   1.274       .  A
C450       C3994   1.481       .  S
O451       Ni467   1.922       .  S
O451        C457   1.277       .  A
O452        C457   1.276       .  A
C453       C4012   1.481       .  S
O454        C456   1.270       .  A
O455       Ni466   1.909       .  S
C456        O462   1.273       .  A
C456       C3976   1.479       .  S
C457       C4068   1.478       .  S
H458        O459   0.966       .  S
O459       Ni467   1.913       .  S
O459       Ni461   1.909       .  S
O459       Ni466   1.903       .  S
O460       Ni461   1.938       .  S
Ni461       O465   1.924       .  S
Ni461       O463   1.929       .  S
O462       Ni467   1.934       .  S
C464        O465   1.273       .  A
C464       C4806   1.488       .  S
O469       Ni475   1.916       .  S
O469        C490   1.269       .  A
O470       Ni493   1.925       .  S
O470        C479   1.274       .  A
O471       Ni475   1.893       .  S
O471       Ni493   1.906       .  S
O471       Ni487   1.932       .  S
O471        H494   0.966       .  S
C472        O489   1.286       .  A
C472        O481   1.278       .  A
C472       C3924   1.490       .  S
O473       Ni492   1.920       .  S
O473        C479   1.270       .  A
O474       Ni492   1.913       .  S
O474        C476   1.270       .  A
Ni475       O478   1.917       .  S
Ni475       O480   1.904       .  S
C476        O486   1.272       .  A
C476       C3960   1.482       .  S
O477       Ni493   1.960       .  S
O477        C483   1.287       .  A
O478        C483   1.276       .  A
C479       C4104   1.477       .  S
O480        C482   1.269       .  A
O481       Ni492   1.921       .  S
C482        O488   1.274       .  A
C482       C3906   1.489       .  S
C483       C3942   1.489       .  S
H484        O485   0.966       .  S
O485       Ni493   1.934       .  S
O485       Ni487   1.903       .  S
O485       Ni492   1.897       .  S
O486       Ni487   1.933       .  S
Ni487       O491   1.923       .  S
Ni487       O489   1.955       .  S
O488       Ni493   1.939       .  S
C490        O491   1.271       .  A
C490       C3886   1.481       .  S
O495       Ni501   1.916       .  S
O495        C516   1.269       .  A
O496       Ni519   1.925       .  S
O496        C505   1.274       .  A
O497       Ni501   1.893       .  S
O497       Ni519   1.903       .  S
O497       Ni513   1.932       .  S
O497        H520   0.966       .  S
C498        O515   1.286       .  A
C498        O507   1.277       .  A
C498       C3940   1.490   1_655  S
O499       Ni518   1.919       .  S
O499        C505   1.270       .  A
O500       Ni518   1.916       .  S
O500        C502   1.270       .  A
Ni501       O504   1.918       .  S
Ni501       O506   1.905       .  S
C502        O512   1.270       .  A
C502       C3868   1.478       .  S
O503       Ni519   1.960       .  S
O503        C509   1.288       .  A
O504        C509   1.277       .  A
C505       C4014   1.478       .  S
O506        C508   1.269       .  A
O507       Ni518   1.920       .  S
C508        O514   1.274       .  A
C508       C3850   1.488       .  S
C509       C3922   1.490       .  S
H510        O511   0.966       .  S
O511       Ni519   1.936       .  S
O511       Ni513   1.902       .  S
O511       Ni518   1.898       .  S
O512       Ni513   1.928       .  S
Ni513       O517   1.921       .  S
Ni513       O515   1.955       .  S
O514       Ni519   1.938       .  S
C516        O517   1.270       .  A
C516       C3832   1.479       .  S
O521       Ni527   1.927       .  S
O521        C542   1.272       .  A
O522       Ni545   1.900       .  S
O522        C531   1.266       .  A
O523       Ni527   1.908       .  S
O523       Ni545   1.902       .  S
O523       Ni539   1.911       .  S
O523        H546   0.966       .  S
C524        O541   1.277       .  A
C524        O533   1.277       .  A
C524       C3780   1.477       .  S
O525       Ni544   1.928   1_455  S
O525        C531   1.273       .  A
O526       Ni544   1.911       .  S
O526        C528   1.270       .  A
Ni527       O530   1.923       .  S
Ni527       O532   1.906       .  S
C528        O538   1.273   1_655  A
C528       C3870   1.480       .  S
O529       Ni545   1.914       .  S
O529        C535   1.274       .  A
O530        C535   1.277       .  A
C531       C3814   1.471       .  S
O532        C534   1.269       .  A
O533       Ni544   1.915       .  S
C534        O540   1.271       .  A
C534       C3762   1.482       .  S
C535       C3796   1.476       .  S
H536        O537   0.966       .  S
O537       Ni545   1.910       .  S
O537       Ni539   1.899       .  S
O537       Ni544   1.903   1_455  S
O538       Ni539   1.934       .  S
Ni539       O543   1.903       .  S
Ni539       O541   1.923   1_455  S
O540       Ni545   1.932       .  S
C542        O543   1.267       .  A
C542       C3742   1.473       .  S
O547       Ni553   1.928       .  S
O547        C568   1.272       .  A
O548       Ni571   1.906       .  S
O548        C557   1.267       .  A
O549       Ni553   1.911       .  S
O549       Ni571   1.908       .  S
O549       Ni565   1.909       .  S
O549        H572   0.966       .  S
C550        O567   1.275       .  A
C550        O559   1.276       .  A
C550       C3798   1.476       .  S
O551       Ni570   1.935       .  S
O551        C557   1.275       .  A
O552       Ni570   1.917       .  S
O552        C554   1.271       .  A
Ni553       O556   1.924       .  S
Ni553       O558   1.908       .  S
C554        O564   1.272       .  A
C554       C3958   1.479       .  S
O555       Ni571   1.910       .  S
O555        C561   1.273       .  A
O556        C561   1.276       .  A
C557       C3724   1.479       .  S
O558        C560   1.270       .  A
O559       Ni570   1.917       .  S
C560        O566   1.274       .  A
C560       C3708   1.486       .  S
C561       C3778   1.476       .  S
H562        O563   0.966       .  S
O563       Ni571   1.909       .  S
O563       Ni565   1.906       .  S
O563       Ni570   1.912       .  S
O564       Ni565   1.931       .  S
Ni565       O569   1.909       .  S
Ni565       O567   1.919       .  S
O566       Ni571   1.939       .  S
C568        O569   1.268       .  A
C568       C3688   1.479       .  S
O573       Ni579   1.924       .  S
O573        C594   1.270       .  A
O574       Ni597   1.896       .  S
O574        C583   1.264       .  A
O575       Ni579   1.907       .  S
O575       Ni597   1.901       .  S
O575       Ni591   1.907       .  S
O575        H598   0.966       .  S
C576        O593   1.274       .  A
C576        O585   1.276       .  A
C576       C3670   1.478       .  S
O577       Ni596   1.933       .  S
O577        C583   1.273       .  A
O578       Ni596   1.911       .  S
O578        C580   1.270       .  A
Ni579       O582   1.922       .  S
Ni579       O584   1.900       .  S
C580        O590   1.268       .  A
C580       C4086   1.471       .  S
O581       Ni597   1.913       .  S
O581        C587   1.274   1_455  A
O582        C587   1.276   1_455  A
C583       C3816   1.470       .  S
O584        C586   1.268       .  A
O585       Ni596   1.918       .  S
C586        O592   1.270       .  A
C586       C3636   1.479       .  S
C587       C3652   1.477       .  S
H588        O589   0.966       .  S
O589       Ni597   1.914       .  S
O589       Ni591   1.907       .  S
O589       Ni596   1.913       .  S
O590       Ni591   1.919       .  S
Ni591       O595   1.902       .  S
Ni591       O593   1.920       .  S
O592       Ni597   1.931       .  S
C594        O595   1.265       .  A
C594       C4338   1.471       .  S
O599       Ni605   1.926       .  S
O599        C620   1.271       .  A
O600       Ni623   1.904       .  S
O600        C609   1.266       .  A
O601       Ni605   1.912       .  S
O601       Ni623   1.905       .  S
O601       Ni617   1.913       .  S
O601        H624   0.966       .  S
C602        O619   1.276       .  A
C602        O611   1.276       .  A
C602       C3654   1.478       .  S
O603       Ni622   1.933       .  S
O603        C609   1.274       .  A
O604       Ni622   1.915       .  S
O604        C606   1.271       .  A
Ni605       O608   1.926       .  S
Ni605       O610   1.906       .  S
C606        O616   1.273       .  A
C606       C3996   1.484       .  S
O607       Ni623   1.912       .  S
O607        C613   1.274       .  A
O608        C613   1.277       .  A
C609       C3726   1.477       .  S
O610        C612   1.269       .  A
O611       Ni622   1.914       .  S
C612        O618   1.270       .  A
C612       C3618   1.480       .  S
C613       C3672   1.476       .  S
H614        O615   0.966       .  S
O615       Ni623   1.910       .  S
O615       Ni617   1.907       .  S
O615       Ni622   1.908       .  S
O616       Ni617   1.934       .  S
Ni617       O621   1.914       .  S
Ni617       O619   1.924       .  S
O618       Ni623   1.929       .  S
C620        O621   1.269       .  A
C620       C4302   1.480       .  S
O625       Ni631   1.924       .  S
O625        C646   1.272   1_545  A
O626       Ni649   1.899       .  S
O626        C635   1.264   1_545  A
O627       Ni631   1.912   1_565  S
O627       Ni649   1.910   1_565  S
O627       Ni643   1.915       .  S
O627        H650   0.966       .  S
C628        O645   1.276   1_545  A
C628        O637   1.276   1_545  A
C628       C3544   1.477       .  S
O629       Ni648   1.935   1_455  S
O629        C635   1.273       .  A
O630       Ni648   1.909       .  S
O630        C632   1.270       .  A
Ni631       O634   1.929       .  S
Ni631       O636   1.898       .  S
C632        O642   1.273       .  A
C632       C3580   1.478       .  S
O633       Ni649   1.903   1_565  S
O633        C639   1.269   1_565  A
O634        C639   1.275       .  A
C635       C3598   1.474       .  S
O636        C638   1.268       .  A
O637       Ni648   1.916       .  S
C638        O644   1.273       .  A
C638       C3634   1.480       .  S
C639       C3562   1.475       .  S
H640        O641   0.966       .  S
O641       Ni649   1.904       .  S
O641       Ni643   1.905   1_545  S
O641       Ni648   1.910   1_445  S
O642       Ni643   1.932   1_655  S
Ni643       O647   1.910       .  S
Ni643       O645   1.922   1_455  S
O644       Ni649   1.941       .  S
C646        O647   1.269       .  A
C646       C4122   1.480       .  S
O651       Ni657   1.928       .  S
O651        C672   1.272   1_545  A
O652       Ni675   1.905   1_545  S
O652        C661   1.267   1_545  A
O653       Ni657   1.912   1_565  S
O653       Ni675   1.912       .  S
O653       Ni669   1.913       .  S
O653        H676   0.966       .  S
C654        O671   1.276       .  A
C654        O663   1.276       .  A
C654       C3564   1.476       .  S
O655       Ni674   1.935       .  S
O655        C661   1.274       .  A
O656       Ni674   1.910       .  S
O656        C658   1.271       .  A
Ni657       O660   1.923       .  S
Ni657       O662   1.898       .  S
C658        O668   1.272       .  A
C658       C3508   1.477       .  S
O659       Ni675   1.910       .  S
O659        C665   1.271   1_565  A
O660        C665   1.275       .  A
C661       C3526   1.478       .  S
O662        C664   1.268       .  A
O663       Ni674   1.916       .  S
C664        O670   1.273       .  A
C664       C3616   1.483       .  S
C665       C3546   1.476   1_545  S
H666        O667   0.966       .  S
O667       Ni675   1.905   1_545  S
O667       Ni669   1.905   1_545  S
O667       Ni674   1.908   1_545  S
O668       Ni669   1.932       .  S
Ni669       O673   1.914       .  S
Ni669       O671   1.920       .  S
O670       Ni675   1.938   1_545  S
C672        O673   1.269       .  A
C672       C4140   1.483       .  S
O677       Ni683   1.925       .  S
O677        C698   1.271   1_545  A
O678       Ni701   1.902   1_545  S
O678        C687   1.267   1_545  A
O679       Ni683   1.908   1_565  S
O679       Ni701   1.906       .  S
O679       Ni695   1.912       .  S
O679        H702   0.967       .  S
C680        O697   1.276       .  A
C680        O689   1.276       .  A
C680       C3472   1.476       .  S
O681       Ni700   1.931       .  S
O681        C687   1.273       .  A
O682       Ni700   1.913       .  S
O682        C684   1.271       .  A
Ni683       O686   1.918       .  S
Ni683       O688   1.901       .  S
C684        O694   1.273       .  A
C684       C3490   1.483       .  S
O685       Ni701   1.918       .  S
O685        C691   1.274       .  A
O686        C691   1.275   1_545  A
C687       C3600   1.473       .  S
O688        C690   1.269       .  A
O689       Ni700   1.913       .  S
C690        O696   1.273       .  A
C690       C3760   1.484       .  S
C691       C3454   1.478   1_455  S
H692        O693   0.966   1_545  S
O693       Ni701   1.909       .  S
O693       Ni695   1.905       .  S
O693       Ni700   1.907       .  S
O694       Ni695   1.933       .  S
Ni695       O699   1.910       .  S
Ni695       O697   1.922       .  S
O696       Ni701   1.938   1_545  S
C698        O699   1.268       .  A
C698       C3436   1.477       .  S
O703       Ni709   1.925       .  S
O703        C724   1.271   1_545  A
O704       Ni727   1.903   1_545  S
O704        C713   1.267   1_545  A
O705       Ni709   1.909   1_565  S
O705       Ni727   1.907       .  S
O705       Ni721   1.910       .  S
O705        H728   0.967       .  S
C706        O723   1.277       .  A
C706        O715   1.276       .  A
C706       C3456   1.477       .  S
O707       Ni726   1.937       .  S
O707        C713   1.275       .  A
O708       Ni726   1.916       .  S
O708        C710   1.271       .  A
Ni709       O712   1.920   1_545  S
Ni709       O714   1.906       .  S
C710        O720   1.273       .  A
C710       C3420   1.482       .  S
O711       Ni727   1.911       .  S
O711        C717   1.273       .  A
O712        C717   1.276       .  A
C713       C3528   1.478       .  S
O714        C716   1.269       .  A
O715       Ni726   1.916       .  S
C716        O722   1.273       .  A
C716       C3706   1.486       .  S
C717       C3474   1.474       .  S
H718        O719   0.966   1_545  S
O719       Ni727   1.907       .  S
O719       Ni721   1.906       .  S
O719       Ni726   1.908       .  S
O720       Ni721   1.934       .  S
Ni721       O725   1.916       .  S
Ni721       O723   1.922       .  S
O722       Ni727   1.938   1_545  S
C724        O725   1.270       .  A
C724       C3400   1.481       .  S
O729       Ni735   1.923       .  S
O729        C750   1.269       .  A
O730       Ni753   1.894       .  S
O730        C739   1.264       .  A
O731       Ni735   1.902       .  S
O731       Ni753   1.892       .  S
O731       Ni747   1.908       .  S
O731        H754   0.966       .  S
C732        O749   1.277       .  A
C732        O741   1.277       .  A
C732       C3346   1.476       .  S
O733       Ni752   1.937       .  S
O733        C739   1.274       .  A
O734       Ni752   1.905       .  S
O734        C736   1.271       .  A
Ni735       O738   1.919       .  S
Ni735       O740   1.910       .  S
C736        O746   1.276       .  A
C736       C3510   1.479       .  S
O737       Ni753   1.918       .  S
O737        C743   1.276       .  A
O738        C743   1.278       .  A
C739       C3384   1.472       .  S
O740        C742   1.267       .  A
O741       Ni752   1.917       .  S
C742        O748   1.268       .  A
C742       C4032   1.475       .  S
C743       C3366   1.473       .  S
H744        O745   0.966       .  S
O745       Ni753   1.907       .  S
O745       Ni747   1.907       .  S
O745       Ni752   1.900       .  S
O746       Ni747   1.939       .  S
Ni747       O751   1.925       .  S
Ni747       O749   1.921       .  S
O748       Ni753   1.925       .  S
C750        O751   1.273       .  A
C750       C4590   1.473       .  S
O755       Ni761   1.935       .  S
O755        C776   1.274       .  A
O756       Ni779   1.905       .  S
O756        C765   1.268       .  A
O757       Ni761   1.910       .  S
O757       Ni779   1.904       .  S
O757       Ni773   1.908       .  S
O757        H780   0.966       .  S
C758        O775   1.276       .  A
C758        O767   1.277       .  A
C758       C3364   1.472       .  S
O759       Ni778   1.930       .  S
O759        C765   1.273       .  A
O760       Ni778   1.909       .  S
O760        C762   1.270       .  A
Ni761       O764   1.922       .  S
Ni761       O766   1.909       .  S
C762        O772   1.272       .  A
C762       C3582   1.478       .  S
O763       Ni779   1.912       .  S
O763        C769   1.274       .  A
O764        C769   1.277       .  A
C765       C3328   1.474       .  S
O766        C768   1.270       .  A
O767       Ni778   1.917       .  S
C768        O774   1.273       .  A
C768       C3978   1.477       .  S
C769       C3348   1.475       .  S
H770        O771   0.966       .  S
O771       Ni779   1.907       .  S
O771       Ni773   1.900       .  S
O771       Ni778   1.906       .  S
O772       Ni773   1.931       .  S
Ni773       O777   1.905       .  S
Ni773       O775   1.918       .  S
O774       Ni779   1.934       .  S
C776        O777   1.268       .  A
C776       C4554   1.479       .  S
O781       Ni787   1.929       .  S
O781        C802   1.273       .  A
O782       Ni805   1.902       .  S
O782        C791   1.267       .  A
O783       Ni787   1.905       .  S
O783       Ni805   1.900       .  S
O783       Ni799   1.910       .  S
O783        H806   0.967       .  S
C784        O801   1.278       .  A
C784        O793   1.277       .  A
C784       C3312   1.476       .  S
O785       Ni804   1.930       .  S
O785        C791   1.274       .  A
O786       Ni804   1.917       .  S
O786        C788   1.270       .  A
Ni787       O790   1.928       .  S
Ni787       O792   1.909       .  S
C788        O798   1.272       .  A
C788       C3492   1.482       .  S
O789       Ni805   1.912       .  S
O789        C795   1.275       .  A
O790        C795   1.278       .  A
C791       C3382   1.472       .  S
O792        C794   1.270       .  A
O793       Ni804   1.915       .  S
C794        O800   1.273       .  A
C794       C3904   1.488       .  S
C795       C3294   1.477       .  S
H796        O797   0.966       .  S
O797       Ni805   1.910       .  S
O797       Ni799   1.899       .  S
O797       Ni804   1.903       .  S
O798       Ni799   1.933       .  S
Ni799       O803   1.906       .  S
Ni799       O801   1.926       .  S
O800       Ni805   1.939       .  S
C802        O803   1.268       .  A
C802       C3274   1.477       .  S
O807       Ni813   1.931       .  S
O807        C828   1.274       .  A
O808       Ni831   1.904       .  S
O808        C817   1.266       .  A
O809       Ni813   1.906       .  S
O809       Ni831   1.902       .  S
O809       Ni825   1.910       .  S
O809        H832   0.967       .  S
C810        O827   1.278       .  A
C810        O819   1.276       .  A
C810       C3292   1.479       .  S
O811       Ni830   1.930       .  S
O811        C817   1.273       .  A
O812       Ni830   1.911       .  S
O812        C814   1.270       .  A
Ni813       O816   1.931       .  S
Ni813       O818   1.910       .  S
C814        O824   1.274       .  A
C814       C3418   1.483       .  S
O815       Ni831   1.907       .  S
O815        C821   1.273       .  A
O816        C821   1.278       .  A
C817       C3330   1.474       .  S
O818        C820   1.270       .  A
O819       Ni830   1.912       .  S
C820        O826   1.273       .  A
C820       C3852   1.486       .  S
C821       C3310   1.476       .  S
H822        O823   0.966       .  S
O823       Ni831   1.909       .  S
O823       Ni825   1.903       .  S
O823       Ni830   1.903       .  S
O824       Ni825   1.937       .  S
Ni825       O829   1.909       .  S
Ni825       O827   1.929       .  S
O826       Ni831   1.940       .  S
C828        O829   1.269       .  A
C828       C3256   1.479       .  S
O833       Ni839   1.928       .  S
O833        C854   1.270       .  A
O834       Ni857   1.916       .  S
O834        C843   1.270       .  A
O835       Ni839   1.912       .  S
O835       Ni857   1.910       .  S
O835       Ni851   1.912       .  S
O835        H858   0.966       .  S
C836        O853   1.275       .  A
C836        O845   1.276       .  A
C836       C3202   1.475       .  S
O837       Ni856   1.934       .  S
O837        C843   1.273       .  A
O838       Ni856   1.912       .  S
O838        C840   1.271       .  A
Ni839       O842   1.915       .  S
Ni839       O844   1.909       .  S
C840        O850   1.271       .  A
C840       C3166   1.480       .  S
O841       Ni857   1.920       .  S
O841        C847   1.276       .  A
O842        C847   1.276       .  A
C843       C3148   1.486       .  S
O844        C846   1.270       .  A
O845       Ni856   1.918       .  S
C846        O852   1.272       .  A
C846       C3220   1.478       .  S
C847       C3184   1.476       .  S
H848        O849   0.966       .  S
O849       Ni857   1.910       .  S
O849       Ni851   1.909       .  S
O849       Ni856   1.911       .  S
O850       Ni851   1.926       .  S
Ni851       O855   1.916       .  S
Ni851       O853   1.916       .  S
O852       Ni857   1.930       .  S
C854        O855   1.269       .  A
C854       C3238   1.478       .  S
O859       Ni865   1.929       .  S
O859        C880   1.271       .  A
O860       Ni883   1.914       .  S
O860        C869   1.269       .  A
O861       Ni865   1.904       .  S
O861       Ni883   1.908       .  S
O861       Ni877   1.911   1_455  S
O861        H884   0.966       .  S
C862        O879   1.276       .  A
C862        O871   1.276       .  A
C862       C3186   1.477       .  S
O863       Ni882   1.928       .  S
O863        C869   1.271   1_655  A
O864       Ni882   1.906       .  S
O864        C866   1.269       .  A
Ni865       O868   1.916       .  S
Ni865       O870   1.904       .  S
C866        O876   1.269       .  A
C866       C3096   1.472       .  S
O867       Ni883   1.919       .  S
O867        C873   1.275       .  A
O868        C873   1.276       .  A
C869       C3076   1.481       .  S
O870        C872   1.269       .  A
O871       Ni882   1.915       .  S
C872        O878   1.272       .  A
C872       C3112   1.474       .  S
C873       C3204   1.476       .  S
H874        O875   0.966       .  S
O875       Ni883   1.910   1_655  S
O875       Ni877   1.907       .  S
O875       Ni882   1.907       .  S
O876       Ni877   1.924       .  S
Ni877       O881   1.914       .  S
Ni877       O879   1.922       .  S
O878       Ni883   1.931       .  S
C880        O881   1.270   1_455  A
C880       C3130   1.478   1_455  S
O885       Ni891   1.921       .  S
O885        C906   1.269       .  A
O886       Ni909   1.917       .  S
O886        C895   1.271       .  A
O887       Ni891   1.898       .  S
O887       Ni909   1.903       .  S
O887       Ni903   1.914       .  S
O887        H910   0.966       .  S
C888        O905   1.277       .  A
C888        O897   1.276       .  A
C888       C3024   1.475       .  S
O889       Ni908   1.925       .  S
O889        C895   1.271       .  A
O890       Ni908   1.908       .  S
O890        C892   1.269       .  A
Ni891       O894   1.908       .  S
Ni891       O896   1.908       .  S
C892        O902   1.269       .  A
C892       C3006   1.473       .  S
O893       Ni909   1.930       .  S
O893        C899   1.279       .  A
O894        C899   1.276       .  A
C895       C3888   1.481       .  S
O896        C898   1.269       .  A
O897       Ni908   1.914       .  S
C898        O904   1.273       .  A
C898       C3058   1.478       .  S
C899       C3040   1.478       .  S
H900        O901   0.966       .  S
O901       Ni909   1.912       .  S
O901       Ni903   1.907       .  S
O901       Ni908   1.906       .  S
O902       Ni903   1.925       .  S
Ni903       O907   1.920       .  S
Ni903       O905   1.921       .  S
O904       Ni909   1.933       .  S
C906        O907   1.271       .  A
C906       C3240   1.476       .  S
O911       Ni917   1.922       .  S
O911        C932   1.270       .  A
O912       Ni935   1.911       .  S
O912        C921   1.268       .  A
O913       Ni917   1.900       .  S
O913       Ni935   1.907       .  S
O913       Ni929   1.917       .  S
O913        H936   0.966       .  S
C914        O931   1.279   1_455  A
C914        O923   1.276   1_455  A
C914       C3042   1.479       .  S
O915       Ni934   1.925       .  S
O915        C921   1.271       .  A
O916       Ni934   1.906       .  S
O916        C918   1.269       .  A
Ni917       O920   1.910       .  S
Ni917       O922   1.905       .  S
C918        O928   1.270       .  A
C918       C2968   1.472       .  S
O919       Ni935   1.923       .  S
O919        C925   1.275       .  A
O920        C925   1.275       .  A
C921       C3834   1.478       .  S
O922        C924   1.269       .  A
O923       Ni934   1.911       .  S
C924        O930   1.272       .  A
C924       C2986   1.476       .  S
C925       C3022   1.475       .  S
H926        O927   0.966       .  S
O927       Ni935   1.907       .  S
O927       Ni929   1.907       .  S
O927       Ni934   1.905       .  S
O928       Ni929   1.925       .  S
Ni929       O933   1.922       .  S
Ni929       O931   1.927       .  S
O930       Ni935   1.931       .  S
C932        O933   1.272       .  A
C932       C3132   1.478       .  S
O937       Ni943   1.940       .  S
O937        C958   1.275       .  A
O938       Ni961   1.923       .  S
O938        C947   1.270       .  A
O939       Ni943   1.912       .  S
O939       Ni961   1.912       .  S
O939       Ni955   1.911       .  S
O939        H962   0.966       .  S
C940        O957   1.275       .  A
C940        O949   1.276       .  A
C940       C2932   1.475       .  S
O941       Ni960   1.918       .  S
O941        C947   1.268       .  A
O942       Ni960   1.897       .  S
O942        C944   1.266       .  A
Ni943       O946   1.923       .  S
Ni943       O948   1.910       .  S
C944        O954   1.274       .  A
C944       C2896   1.473       .  S
O945       Ni961   1.921       .  S
O945        C951   1.277       .  A
O946        C951   1.277       .  A
C947       C2878   1.482       .  S
O948        C950   1.270       .  A
O949       Ni960   1.920       .  S
C950        O956   1.269       .  A
C950       C3114   1.471       .  S
C951       C2914   1.480       .  S
H952        O953   0.966       .  S
O953       Ni961   1.914       .  S
O953       Ni955   1.901       .  S
O953       Ni960   1.902       .  S
O954       Ni955   1.934       .  S
Ni955       O959   1.903       .  S
Ni955       O957   1.916       .  S
O956       Ni961   1.922       .  S
C958        O959   1.267       .  A
C958       C2950   1.480       .  S
O963       Ni969   1.926       .  S
O963        C984   1.270       .  A
O964       Ni987   1.899       .  S
O964        C973   1.266       .  A
O965       Ni969   1.906       .  S
O965       Ni987   1.900       .  S
O965       Ni981   1.912       .  S
O965        H988   0.966       .  S
C966        O983   1.275       .  A
C966        O975   1.277       .  A
C966       C2916   1.480       .  S
O967       Ni986   1.936       .  S
O967        C973   1.274       .  A
O968       Ni986   1.907       .  S
O968        C970   1.270       .  A
Ni969       O972   1.912       .  S
Ni969       O974   1.912       .  S
C970        O980   1.271       .  A
C970       C2842   1.474       .  S
O971       Ni987   1.926       .  S
O971        C977   1.276       .  A
O972        C977   1.276       .  A
C973       C2824   1.475       .  S
O974        C976   1.270       .  A
O975       Ni986   1.926       .  S
C976        O982   1.270       .  A
C976       C3222   1.475       .  S
C977       C2934   1.479       .  S
H978        O979   0.966       .  S
O979       Ni987   1.910       .  S
O979       Ni981   1.907       .  S
O979       Ni986   1.911       .  S
O980       Ni981   1.928       .  S
Ni981       O985   1.909       .  S
Ni981       O983   1.916       .  S
O982       Ni987   1.926       .  S
C984        O985   1.269       .  A
C984       C2860   1.474       .  S
O989       Ni995   1.939       .  S
O989       C1010   1.275       .  A
O990      Ni1013   1.914       .  S
O990        C999   1.269       .  A
O991       Ni995   1.914       .  S
O991      Ni1013   1.911       .  S
O991      Ni1007   1.910       .  S
O991       H1014   0.966       .  S
C992       O1009   1.275       .  A
C992       O1001   1.276       .  A
C992       C2788   1.474       .  S
O993      Ni1012   1.921       .  S
O993        C999   1.270       .  A
O994      Ni1012   1.906       .  S
O994        C996   1.269       .  A
Ni995       O998   1.920       .  S
Ni995      O1000   1.913       .  S
C996       O1006   1.269       .  A
C996       C2772   1.473       .  S
O997      Ni1013   1.916       .  S
O997       C1003   1.275       .  A
O998       C1003   1.276       .  A
C999       C3276   1.477       .  S
O1000      C1002   1.271       .  A
O1001     Ni1012   1.917       .  S
C1002      O1008   1.271       .  A
C1002      C3060   1.474       .  S
C1003      C2806   1.476       .  S
H1004      O1005   0.966       .  S
O1005     Ni1013   1.911       .  S
O1005     Ni1007   1.899       .  S
O1005     Ni1012   1.910       .  S
O1006     Ni1007   1.924       .  S
Ni1007     O1011   1.900       .  S
Ni1007     O1009   1.918       .  S
O1008     Ni1013   1.927       .  S
C1010      O1011   1.266       .  A
C1010      C2952   1.477       .  S
O1015     Ni1021   1.928       .  S
O1015      C1036   1.271       .  A
O1016     Ni1039   1.906       .  S
O1016      C1025   1.266       .  A
O1017     Ni1021   1.908       .  S
O1017     Ni1039   1.903       .  S
O1017     Ni1033   1.913       .  S
O1017      H1040   0.966       .  S
C1018      O1035   1.277       .  A
C1018      O1027   1.276       .  A
C1018      C2808   1.479       .  S
O1019     Ni1038   1.928       .  S
O1019      C1025   1.272       .  A
O1020     Ni1038   1.905       .  S
O1020      C1022   1.269       .  A
Ni1021     O1024   1.920       .  S
Ni1021     O1026   1.911       .  S
C1022      O1032   1.272       .  A
C1022      C2754   1.474       .  S
O1023     Ni1039   1.916       .  S
O1023      C1029   1.275       .  A
O1024      C1029   1.277       .  A
C1025      C3258   1.476       .  S
O1026      C1028   1.269       .  A
O1027     Ni1038   1.911       .  S
C1028      O1034   1.269       .  A
C1028      C2988   1.473       .  S
C1029      C2790   1.476       .  S
H1030      O1031   0.966       .  S
O1031     Ni1039   1.908       .  S
O1031     Ni1033   1.904       .  S
O1031     Ni1038   1.904       .  S
O1032     Ni1033   1.930       .  S
Ni1033     O1037   1.912       .  S
Ni1033     O1035   1.926       .  S
O1034     Ni1039   1.924       .  S
C1036      O1037   1.270       .  A
C1036      C2862   1.474       .  S
O1041     Ni1047   1.919       .  S
O1041      C1062   1.268       .  A
O1042     Ni1065   1.908       .  S
O1042      C1051   1.267       .  A
O1043     Ni1047   1.908       .  S
O1043     Ni1065   1.901       .  S
O1043     Ni1059   1.912       .  S
O1043      H1066   0.966       .  S
C1044      O1061   1.273       .  A
C1044      O1053   1.275       .  A
C1044      C2682   1.478       .  S
O1045     Ni1064   1.922       .  S
O1045      C1051   1.270       .  A
O1046     Ni1064   1.897       .  S
O1046      C1048   1.266       .  A
Ni1047     O1050   1.908       .  S
Ni1047     O1052   1.913       .  S
C1048      O1058   1.276       .  A
C1048      C3168   1.474       .  S
O1049     Ni1065   1.931       .  S
O1049      C1055   1.279       .  A
O1050      C1055   1.275       .  A
C1051      C2662   1.476       .  S
O1052      C1054   1.269       .  A
O1053     Ni1064   1.922       .  S
C1054      O1060   1.267       .  A
C1054      C2718   1.473       .  S
C1055      C2700   1.478       .  S
H1056      O1057   0.966       .  S
O1057     Ni1065   1.916       .  S
O1057     Ni1059   1.915       .  S
O1057     Ni1064   1.905       .  S
O1058     Ni1059   1.946       .  S
Ni1059     O1063   1.919       .  S
Ni1059     O1061   1.914       .  S
O1060     Ni1065   1.920       .  S
C1062      O1063   1.271       .  A
C1062      C2736   1.474       .  S
O1067     Ni1073   1.928       .  S
O1067      C1088   1.271       .  A
O1068     Ni1091   1.926       .  S
O1068      C1077   1.273       .  A
O1069     Ni1073   1.900       .  S
O1069     Ni1091   1.909       .  S
O1069     Ni1085   1.915       .  S
O1069      H1092   0.966       .  S
C1070      O1087   1.280       .  A
C1070      O1079   1.278       .  A
C1070      C2698   1.479   1_655  S
O1071     Ni1090   1.919       .  S
O1071      C1077   1.267       .  A
O1072     Ni1090   1.905       .  S
O1072      C1074   1.267       .  A
Ni1073     O1076   1.914       .  S
Ni1073     O1078   1.906       .  S
C1074      O1084   1.268       .  A
C1074      C3094   1.473       .  S
O1075     Ni1091   1.929       .  S
O1075      C1081   1.279       .  A
O1076      C1081   1.277       .  A
C1077      C2608   1.474       .  S
O1078      C1080   1.270       .  A
O1079     Ni1090   1.912       .  S
C1080      O1086   1.273       .  A
C1080      C2628   1.477       .  S
C1081      C2680   1.482       .  S
H1082      O1083   0.966       .  S
O1083     Ni1091   1.913       .  S
O1083     Ni1085   1.898       .  S
O1083     Ni1090   1.898       .  S
O1084     Ni1085   1.925       .  S
Ni1085     O1089   1.910       .  S
Ni1085     O1087   1.931       .  S
O1086     Ni1091   1.934       .  S
C1088      O1089   1.269       .  A
C1088      C2644   1.475       .  S
O1093     Ni1099   1.925       .  S
O1093      C1114   1.270       .  A
O1094     Ni1117   1.909       .  S
O1094      C1103   1.268       .  A
O1095     Ni1099   1.905       .  S
O1095     Ni1117   1.904       .  S
O1095     Ni1111   1.910       .  S
O1095      H1118   0.966       .  S
C1096      O1113   1.275       .  A
C1096      O1105   1.275       .  A
C1096      C2572   1.475       .  S
O1097     Ni1116   1.928       .  S
O1097      C1103   1.272       .  A
O1098     Ni1116   1.908       .  S
O1098      C1100   1.269       .  A
Ni1099     O1102   1.911       .  S
Ni1099     O1104   1.908       .  S
C1100      O1110   1.270       .  A
C1100      C3004   1.473       .  S
O1101     Ni1117   1.920       .  S
O1101      C1107   1.276       .  A
O1102      C1107   1.276       .  A
C1103      C3690   1.477       .  S
O1104      C1106   1.270       .  A
O1105     Ni1116   1.912       .  S
C1106      O1112   1.271       .  A
C1106      C2590   1.475       .  S
C1107      C2556   1.474       .  S
H1108      O1109   0.966       .  S
O1109     Ni1117   1.910       .  S
O1109     Ni1111   1.907       .  S
O1109     Ni1116   1.908       .  S
O1110     Ni1111   1.926       .  S
Ni1111     O1115   1.911       .  S
Ni1111     O1113   1.919       .  S
O1112     Ni1117   1.928       .  S
C1114      O1115   1.269       .  A
C1114      C2734   1.473       .  S
O1119     Ni1125   1.920       .  S
O1119      C1140   1.269   1_455  A
O1120     Ni1143   1.905       .  S
O1120      C1129   1.266       .  A
O1121     Ni1125   1.904       .  S
O1121     Ni1143   1.901       .  S
O1121     Ni1137   1.912   1_455  S
O1121      H1144   0.966       .  S
C1122      O1139   1.276       .  A
C1122      O1131   1.276       .  A
C1122      C2554   1.474       .  S
O1123     Ni1142   1.925       .  S
O1123      C1129   1.271   1_655  A
O1124     Ni1142   1.903       .  S
O1124      C1126   1.269       .  A
Ni1125     O1128   1.909       .  S
Ni1125     O1130   1.908       .  S
C1126      O1136   1.272       .  A
C1126      C2970   1.475       .  S
O1127     Ni1143   1.922       .  S
O1127      C1133   1.276       .  A
O1128      C1133   1.276       .  A
C1129      C3744   1.473       .  S
O1130      C1132   1.268       .  A
O1131     Ni1142   1.912       .  S
C1132      O1138   1.268       .  A
C1132      C2536   1.471       .  S
C1133      C2574   1.474       .  S
H1134      O1135   0.966       .  S
O1135     Ni1143   1.909   1_655  S
O1135     Ni1137   1.906       .  S
O1135     Ni1142   1.902       .  S
O1136     Ni1137   1.931       .  S
Ni1137     O1141   1.916       .  S
Ni1137     O1139   1.918       .  S
O1138     Ni1143   1.921       .  S
C1140      O1141   1.271       .  A
C1140      C2646   1.473       .  S
O1145     Ni1151   1.930       .  S
O1145      C1166   1.270       .  A
O1146     Ni1169   1.913       .  S
O1146      C1155   1.269       .  A
O1147     Ni1151   1.904   1_565  S
O1147     Ni1169   1.902   1_565  S
O1147     Ni1163   1.910   1_565  S
O1147      H1170   0.966       .  S
C1148      O1165   1.276       .  A
C1148      O1157   1.279   1_545  A
C1148      C2484   1.474       .  S
O1149     Ni1168   1.924       .  S
O1149      C1155   1.271   1_565  A
O1150     Ni1168   1.906       .  S
O1150      C1152   1.269       .  A
Ni1151     O1154   1.916       .  S
Ni1151     O1156   1.908       .  S
C1152      O1162   1.269       .  A
C1152      C2898   1.477       .  S
O1153     Ni1169   1.923       .  S
O1153      C1159   1.277       .  A
O1154      C1159   1.277       .  A
C1155      C2464   1.478       .  S
O1156      C1158   1.269       .  A
O1157     Ni1168   1.925       .  S
C1158      O1164   1.270       .  A
C1158      C2716   1.475       .  S
C1159      C2502   1.475       .  S
H1160      O1161   0.966       .  S
O1161     Ni1169   1.908       .  S
O1161     Ni1163   1.897       .  S
O1161     Ni1168   1.900   1_545  S
O1162     Ni1163   1.926   1_565  S
Ni1163     O1167   1.902   1_545  S
Ni1163     O1165   1.913       .  S
O1164     Ni1169   1.927       .  S
C1166      O1167   1.267   1_545  A
C1166      C2518   1.467       .  S
O1171     Ni1177   1.929       .  S
O1171      C1192   1.271       .  A
O1172     Ni1195   1.915       .  S
O1172      C1181   1.270       .  A
O1173     Ni1177   1.900       .  S
O1173     Ni1195   1.904       .  S
O1173     Ni1189   1.908       .  S
O1173      H1196   0.966   1_545  S
C1174      O1191   1.276       .  A
C1174      O1183   1.276       .  A
C1174      C2500   1.477       .  S
O1175     Ni1194   1.925       .  S
O1175      C1181   1.271   1_565  A
O1176     Ni1194   1.904       .  S
O1176      C1178   1.268       .  A
Ni1177     O1180   1.913       .  S
Ni1177     O1182   1.906       .  S
C1178      O1188   1.271       .  A
C1178      C2844   1.473       .  S
O1179     Ni1195   1.925       .  S
O1179      C1185   1.278       .  A
O1180      C1185   1.277       .  A
C1181      C2428   1.479       .  S
O1182      C1184   1.269       .  A
O1183     Ni1194   1.914   1_545  S
C1184      O1190   1.272       .  A
C1184      C2626   1.477       .  S
C1185      C2482   1.478       .  S
H1186      O1187   0.966       .  S
O1187     Ni1195   1.914       .  S
O1187     Ni1189   1.905       .  S
O1187     Ni1194   1.905   1_545  S
O1188     Ni1189   1.931   1_565  S
Ni1189     O1193   1.913   1_545  S
Ni1189     O1191   1.921       .  S
O1190     Ni1195   1.932       .  S
C1192      O1193   1.270   1_545  A
C1192      C2446   1.477       .  S
O1197     Ni1203   1.931       .  S
O1197      C1218   1.273       .  A
O1198     Ni1221   1.910       .  S
O1198      C1207   1.268       .  A
O1199     Ni1203   1.906   1_565  S
O1199     Ni1221   1.904   1_565  S
O1199     Ni1215   1.907   1_565  S
O1199      H1222   0.966       .  S
C1200      O1217   1.276       .  A
C1200      O1209   1.276       .  A
C1200      C2412   1.474       .  S
O1201     Ni1220   1.925       .  S
O1201      C1207   1.271   1_565  A
O1202     Ni1220   1.908       .  S
O1202      C1204   1.268       .  A
Ni1203     O1206   1.917       .  S
Ni1203     O1208   1.904       .  S
C1204      O1214   1.267       .  A
C1204      C2770   1.468       .  S
O1205     Ni1221   1.916       .  S
O1205      C1211   1.275       .  A
O1206      C1211   1.276       .  A
C1207      C3438   1.476       .  S
O1208      C1210   1.269       .  A
O1209     Ni1220   1.915   1_545  S
C1210      O1216   1.271       .  A
C1210      C2538   1.473       .  S
C1211      C2392   1.474   1_455  S
H1212      O1213   0.966       .  S
O1213     Ni1221   1.910       .  S
O1213     Ni1215   1.898       .  S
O1213     Ni1220   1.906   1_545  S
O1214     Ni1215   1.918   1_565  S
Ni1215     O1219   1.897   1_545  S
Ni1215     O1217   1.919       .  S
O1216     Ni1221   1.928       .  S
C1218      O1219   1.264   1_545  A
C1218      C2520   1.470       .  S
O1223     Ni1229   1.924       .  S
O1223      C1244   1.270       .  A
O1224     Ni1247   1.911       .  S
O1224      C1233   1.268       .  A
O1225     Ni1229   1.906   1_565  S
O1225     Ni1247   1.906   1_565  S
O1225     Ni1241   1.913   1_565  S
O1225      H1248   0.966       .  S
C1226      O1243   1.276       .  A
C1226      O1235   1.275   1_545  A
C1226      C2394   1.475       .  S
O1227     Ni1246   1.928       .  S
O1227      C1233   1.272   1_565  A
O1228     Ni1246   1.902       .  S
O1228      C1230   1.269       .  A
Ni1229     O1232   1.912       .  S
Ni1229     O1234   1.912       .  S
C1230      O1240   1.273       .  A
C1230      C2752   1.474       .  S
O1231     Ni1247   1.922       .  S
O1231      C1237   1.276       .  A
O1232      C1237   1.275       .  A
C1233      C3402   1.479       .  S
O1234      C1236   1.270       .  A
O1235     Ni1246   1.912       .  S
C1236      O1242   1.269       .  A
C1236      C2592   1.475       .  S
C1237      C2410   1.476       .  S
H1238      O1239   0.966       .  S
O1239     Ni1247   1.909       .  S
O1239     Ni1241   1.910       .  S
O1239     Ni1246   1.905   1_545  S
O1240     Ni1241   1.933   1_565  S
Ni1241     O1245   1.921   1_545  S
Ni1241     O1243   1.920       .  S
O1242     Ni1247   1.924       .  S
C1244      O1245   1.272   1_545  A
C1244      C2448   1.478       .  S
O1249     Ni1255   1.930       .  S
O1249      C1270   1.272       .  A
O1250     Ni1273   1.905       .  S
O1250      C1259   1.267       .  A
O1251     Ni1255   1.913       .  S
O1251     Ni1273   1.911       .  S
O1251     Ni1267   1.910       .  S
O1251      H1274   0.967       .  S
C1252      O1269   1.275       .  A
C1252      O1261   1.276       .  A
C1252      C2338   1.473       .  S
O1253     Ni1272   1.935       .  S
O1253      C1259   1.274       .  A
O1254     Ni1272   1.911       .  S
O1254      C1256   1.271       .  A
Ni1255     O1258   1.919   1_455  S
Ni1255     O1260   1.903       .  S
C1256      O1266   1.271       .  A
C1256      C2358   1.473       .  S
O1257     Ni1273   1.913       .  S
O1257      C1263   1.273   1_455  A
O1258      C1263   1.275       .  A
C1259      C2374   1.478       .  S
O1260      C1262   1.269       .  A
O1261     Ni1272   1.914       .  S
C1262      O1268   1.271       .  A
C1262      C2304   1.473       .  S
C1263      C2320   1.476       .  S
H1264      O1265   0.966       .  S
O1265     Ni1273   1.907       .  S
O1265     Ni1267   1.905       .  S
O1265     Ni1272   1.909       .  S
O1266     Ni1267   1.926       .  S
Ni1267     O1271   1.915       .  S
Ni1267     O1269   1.917       .  S
O1268     Ni1273   1.930       .  S
C1270      O1271   1.269       .  A
C1270      C5022   1.485       .  S
O1275     Ni1281   1.928       .  S
O1275      C1296   1.272       .  A
O1276     Ni1299   1.905       .  S
O1276      C1285   1.266       .  A
O1277     Ni1281   1.910       .  S
O1277     Ni1299   1.907       .  S
O1277     Ni1293   1.909       .  S
O1277      H1300   0.967       .  S
C1278      O1295   1.276       .  A
C1278      O1287   1.275       .  A
C1278      C2322   1.477       .  S
O1279     Ni1298   1.933       .  S
O1279      C1285   1.273       .  A
O1280     Ni1298   1.911       .  S
O1280      C1282   1.270       .  A
Ni1281     O1284   1.923       .  S
Ni1281     O1286   1.906       .  S
C1282      O1292   1.272       .  A
C1282      C2268   1.479       .  S
O1283     Ni1299   1.905       .  S
O1283      C1289   1.271       .  A
O1284      C1289   1.276       .  A
C1285      C2284   1.478       .  S
O1286      C1288   1.269       .  A
O1287     Ni1298   1.913       .  S
C1288      O1294   1.272       .  A
C1288      C2250   1.481       .  S
C1289      C2340   1.473       .  S
H1290      O1291   0.966       .  S
O1291     Ni1299   1.907       .  S
O1291     Ni1293   1.909       .  S
O1291     Ni1298   1.909       .  S
O1292     Ni1293   1.931       .  S
Ni1293     O1297   1.913       .  S
Ni1293     O1295   1.922       .  S
O1294     Ni1299   1.933       .  S
C1296      O1297   1.269       .  A
C1296      C4950   1.481       .  S
O1301     Ni1307   1.927       .  S
O1301      C1322   1.272       .  A
O1302     Ni1325   1.907       .  S
O1302      C1311   1.267       .  A
O1303     Ni1307   1.911       .  S
O1303     Ni1325   1.905       .  S
O1303     Ni1319   1.914       .  S
O1303      H1326   0.966       .  S
C1304      O1321   1.279       .  A
C1304      O1313   1.276       .  A
C1304      C2194   1.479       .  S
O1305     Ni1324   1.931   1_455  S
O1305      C1311   1.273       .  A
O1306     Ni1324   1.913       .  S
O1306      C1308   1.270       .  A
Ni1307     O1310   1.924       .  S
Ni1307     O1312   1.906       .  S
C1308      O1318   1.274   1_655  A
C1308      C2232   1.483       .  S
O1309     Ni1325   1.911       .  S
O1309      C1315   1.273       .  A
O1310      C1315   1.276       .  A
C1311      C2376   1.477       .  S
O1312      C1314   1.269       .  A
O1313     Ni1324   1.912       .  S
C1314      O1320   1.273       .  A
C1314      C2178   1.480       .  S
C1315      C2214   1.475       .  S
H1316      O1317   0.966       .  S
O1317     Ni1325   1.908       .  S
O1317     Ni1319   1.903       .  S
O1317     Ni1324   1.903   1_455  S
O1318     Ni1319   1.937       .  S
Ni1319     O1323   1.915       .  S
Ni1319     O1321   1.930   1_455  S
O1320     Ni1325   1.939       .  S
C1322      O1323   1.270       .  A
C1322      C3078   1.482       .  S
O1327     Ni1333   1.932       .  S
O1327      C1348   1.273       .  A
O1328     Ni1351   1.910       .  S
O1328      C1337   1.268       .  A
O1329     Ni1333   1.915       .  S
O1329     Ni1351   1.910       .  S
O1329     Ni1345   1.915       .  S
O1329      H1352   0.967       .  S
C1330      O1347   1.279       .  A
C1330      O1339   1.276       .  A
C1330      C2212   1.477       .  S
O1331     Ni1350   1.930       .  S
O1331      C1337   1.272       .  A
O1332     Ni1350   1.911       .  S
O1332      C1334   1.271       .  A
Ni1333     O1336   1.927       .  S
Ni1333     O1338   1.909       .  S
C1334      O1344   1.274       .  A
C1334      C2158   1.481       .  S
O1335     Ni1351   1.911       .  S
O1335      C1341   1.273       .  A
O1336      C1341   1.276       .  A
C1337      C2286   1.478       .  S
O1338      C1340   1.270       .  A
O1339     Ni1350   1.909       .  S
C1340      O1346   1.272       .  A
C1340      C2140   1.477       .  S
C1341      C2196   1.478       .  S
H1342      O1343   0.966       .  S
O1343     Ni1351   1.907       .  S
O1343     Ni1345   1.906       .  S
O1343     Ni1350   1.904       .  S
O1344     Ni1345   1.934       .  S
Ni1345     O1349   1.921       .  S
Ni1345     O1347   1.930       .  S
O1346     Ni1351   1.933       .  S
C1348      O1349   1.272       .  A
C1348      C3150   1.489       .  S
O1353     Ni1359   1.929       .  S
O1353      C1374   1.271       .  A
O1354     Ni1377   1.900       .  S
O1354      C1363   1.265       .  A
O1355     Ni1359   1.911       .  S
O1355     Ni1377   1.907       .  S
O1355     Ni1371   1.913       .  S
O1355      H1378   0.967       .  S
C1356      O1373   1.277       .  A
C1356      O1365   1.276       .  A
C1356      C2106   1.478       .  S
O1357     Ni1376   1.935       .  S
O1357      C1363   1.273       .  A
O1358     Ni1376   1.911       .  S
O1358      C1360   1.270       .  A
Ni1359     O1362   1.926       .  S
Ni1359     O1364   1.899       .  S
C1360      O1370   1.269       .  A
C1360      C2356   1.474       .  S
O1361     Ni1377   1.907       .  S
O1361      C1367   1.271       .  A
O1362      C1367   1.275       .  A
C1363      C2122   1.475       .  S
O1364      C1366   1.269       .  A
O1365     Ni1376   1.915       .  S
C1366      O1372   1.272       .  A
C1366      C2070   1.481       .  S
C1367      C2088   1.474       .  S
H1368      O1369   0.965       .  S
O1369     Ni1377   1.906       .  S
O1369     Ni1371   1.907       .  S
O1369     Ni1376   1.912       .  S
O1370     Ni1371   1.924       .  S
Ni1371     O1375   1.909       .  S
Ni1371     O1373   1.924       .  S
O1372     Ni1377   1.934       .  S
C1374      O1375   1.268       .  A
C1374      C4462   1.479       .  S
O1379     Ni1385   1.934       .  S
O1379      C1400   1.273       .  A
O1380     Ni1403   1.917       .  S
O1380      C1389   1.271       .  A
O1381     Ni1385   1.911       .  S
O1381     Ni1403   1.913       .  S
O1381     Ni1397   1.913       .  S
O1381      H1404   0.966       .  S
C1382      O1399   1.277       .  A
C1382      O1391   1.276       .  A
C1382      C2086   1.476       .  S
O1383     Ni1402   1.924       .  S
O1383      C1389   1.270       .  A
O1384     Ni1402   1.910       .  S
O1384      C1386   1.269       .  A
Ni1385     O1388   1.920       .  S
Ni1385     O1390   1.905       .  S
C1386      O1396   1.271       .  A
C1386      C2266   1.479       .  S
O1387     Ni1403   1.917       .  S
O1387      C1393   1.274       .  A
O1388      C1393   1.275       .  A
C1389      C2052   1.474       .  S
O1390      C1392   1.270       .  A
O1391     Ni1402   1.912       .  S
C1392      O1398   1.274       .  A
C1392      C2032   1.478       .  S
C1393      C2104   1.480       .  S
H1394      O1395   0.966       .  S
O1395     Ni1403   1.912       .  S
O1395     Ni1397   1.899       .  S
O1395     Ni1402   1.905       .  S
O1396     Ni1397   1.930       .  S
Ni1397     O1401   1.904       .  S
Ni1397     O1399   1.926       .  S
O1398     Ni1403   1.939       .  S
C1400      O1401   1.267       .  A
C1400      C4408   1.478       .  S
O1405     Ni1411   1.923       .  S
O1405      C1426   1.270       .  A
O1406     Ni1429   1.900       .  S
O1406      C1415   1.266       .  A
O1407     Ni1411   1.906       .  S
O1407     Ni1429   1.899       .  S
O1407     Ni1423   1.908       .  S
O1407      H1430   0.966       .  S
C1408      O1425   1.275       .  A
C1408      O1417   1.276       .  A
C1408      C1996   1.475       .  S
O1409     Ni1428   1.935       .  S
O1409      C1415   1.274       .  A
O1410     Ni1428   1.913       .  S
O1410      C1412   1.271       .  A
Ni1411     O1414   1.920       .  S
Ni1411     O1416   1.903       .  S
C1412      O1422   1.272       .  A
C1412      C2160   1.476       .  S
O1413     Ni1429   1.914       .  S
O1413      C1419   1.275       .  A
O1414      C1419   1.276       .  A
C1415      C2124   1.474       .  S
O1416      C1418   1.269       .  A
O1417     Ni1428   1.918       .  S
C1418      O1424   1.272       .  A
C1418      C1978   1.485       .  S
C1419      C2014   1.474       .  S
H1420      O1421   0.966       .  S
O1421     Ni1429   1.913       .  S
O1421     Ni1423   1.907       .  S
O1421     Ni1428   1.912       .  S
O1422     Ni1423   1.930       .  S
Ni1423     O1427   1.909       .  S
Ni1423     O1425   1.917       .  S
O1424     Ni1429   1.935       .  S
C1426      O1427   1.267       .  A
C1426      C2664   1.475       .  S
O1431     Ni1437   1.920       .  S
O1431      C1452   1.266       .  A
O1432     Ni1455   1.910       .  S
O1432      C1441   1.269       .  A
O1433     Ni1437   1.898       .  S
O1433     Ni1455   1.903       .  S
O1433     Ni1449   1.912       .  S
O1433      H1456   0.966       .  S
C1434      O1451   1.278       .  A
C1434      O1443   1.277       .  A
C1434      C2016   1.478   1_655  S
O1435     Ni1454   1.929       .  S
O1435      C1441   1.271       .  A
O1436     Ni1454   1.909       .  S
O1436      C1438   1.270       .  A
Ni1437     O1440   1.917       .  S
Ni1437     O1442   1.900       .  S
C1438      O1448   1.275       .  A
C1438      C2230   1.481       .  S
O1439     Ni1455   1.923       .  S
O1439      C1445   1.278       .  A
O1440      C1445   1.278       .  A
C1441      C2050   1.476       .  S
O1442      C1444   1.267       .  A
O1443     Ni1454   1.910       .  S
C1444      O1450   1.270       .  A
C1444      C1962   1.483       .  S
C1445      C1998   1.477       .  S
H1446      O1447   0.966       .  S
O1447     Ni1455   1.912       .  S
O1447     Ni1449   1.907       .  S
O1447     Ni1454   1.898       .  S
O1448     Ni1449   1.938       .  S
Ni1449     O1453   1.928       .  S
Ni1449     O1451   1.926       .  S
O1450     Ni1455   1.932       .  S
C1452      O1453   1.273       .  A
C1452      C2610   1.474       .  S
O1457     Ni1463   1.924       .  S
O1457      C1478   1.269       .  A
O1458     Ni1481   1.922       .  S
O1458      C1467   1.271       .  A
O1459     Ni1463   1.902       .  S
O1459     Ni1481   1.913       .  S
O1459     Ni1475   1.909       .  S
O1459      H1482   0.966       .  S
C1460      O1477   1.276       .  A
C1460      O1469   1.276       .  A
C1460      C1888   1.476       .  S
O1461     Ni1480   1.926       .  S
O1461      C1467   1.270       .  A
O1462     Ni1480   1.911       .  S
O1462      C1464   1.270       .  A
Ni1463     O1466   1.911       .  S
Ni1463     O1468   1.897   1_565  S
C1464      O1474   1.272       .  A
C1464      C1924   1.481       .  S
O1465     Ni1481   1.922       .  S
O1465      C1471   1.277       .  A
O1466      C1471   1.276       .  A
C1467      C1942   1.480       .  S
O1468      C1470   1.268       .  A
O1469     Ni1480   1.914       .  S
C1470      O1476   1.272       .  A
C1470      C2068   1.481       .  S
C1471      C1906   1.476       .  S
H1472      O1473   0.966   1_545  S
O1473     Ni1481   1.914       .  S
O1473     Ni1475   1.909       .  S
O1473     Ni1480   1.905       .  S
O1474     Ni1475   1.932       .  S
Ni1475     O1479   1.918       .  S
Ni1475     O1477   1.920       .  S
O1476     Ni1481   1.934   1_545  S
C1478      O1479   1.269       .  A
C1478      C4228   1.482       .  S
O1483     Ni1489   1.921   1_545  S
O1483      C1504   1.270   1_545  A
O1484     Ni1507   1.912       .  S
O1484      C1493   1.270       .  A
O1485     Ni1489   1.904       .  S
O1485     Ni1507   1.901       .  S
O1485     Ni1501   1.913       .  S
O1485      H1508   0.966       .  S
C1486      O1503   1.278       .  A
C1486      O1495   1.278       .  A
C1486      C1908   1.475   1_655  S
O1487     Ni1506   1.928       .  S
O1487      C1493   1.271       .  A
O1488     Ni1506   1.910       .  S
O1488      C1490   1.270       .  A
Ni1489     O1492   1.911       .  S
Ni1489     O1494   1.908   1_565  S
C1490      O1500   1.271       .  A
C1490      C1852   1.478       .  S
O1491     Ni1507   1.925       .  S
O1491      C1497   1.278       .  A
O1492      C1497   1.276       .  A
C1493      C1870   1.476       .  S
O1494      C1496   1.268       .  A
O1495     Ni1506   1.915       .  S
C1496      O1502   1.271       .  A
C1496      C2034   1.475       .  S
C1497      C1890   1.475       .  S
H1498      O1499   0.966   1_545  S
O1499     Ni1507   1.910       .  S
O1499     Ni1501   1.899       .  S
O1499     Ni1506   1.901       .  S
O1500     Ni1501   1.932       .  S
Ni1501     O1505   1.910       .  S
Ni1501     O1503   1.922       .  S
O1502     Ni1507   1.930   1_545  S
C1504      O1505   1.268       .  A
C1504      C4194   1.475       .  S
O1509     Ni1515   1.922   1_545  S
O1509      C1530   1.269   1_545  A
O1510     Ni1533   1.923       .  S
O1510      C1519   1.272       .  A
O1511     Ni1515   1.904       .  S
O1511     Ni1533   1.909       .  S
O1511     Ni1527   1.917       .  S
O1511      H1534   0.966       .  S
C1512      O1529   1.278       .  A
C1512      O1521   1.277       .  A
C1512      C1816   1.477       .  S
O1513     Ni1532   1.923       .  S
O1513      C1519   1.270       .  A
O1514     Ni1532   1.910       .  S
O1514      C1516   1.270       .  A
Ni1515     O1518   1.916       .  S
Ni1515     O1520   1.901   1_565  S
C1516      O1526   1.270       .  A
C1516      C1836   1.482       .  S
O1517     Ni1533   1.924       .  S
O1517      C1523   1.277       .  A
O1518      C1523   1.276       .  A
C1519      C1944   1.479       .  S
O1520      C1522   1.269       .  A
O1521     Ni1532   1.915       .  S
C1522      O1528   1.274       .  A
C1522      C1980   1.485       .  S
C1523      C1798   1.478       .  S
H1524      O1525   0.966   1_545  S
O1525     Ni1533   1.914       .  S
O1525     Ni1527   1.905       .  S
O1525     Ni1532   1.903       .  S
O1526     Ni1527   1.927       .  S
Ni1527     O1531   1.916       .  S
Ni1527     O1529   1.923       .  S
O1528     Ni1533   1.938   1_545  S
C1530      O1531   1.268       .  A
C1530      C2466   1.479       .  S
O1535     Ni1541   1.920   1_545  S
O1535      C1556   1.269   1_545  A
O1536     Ni1559   1.914       .  S
O1536      C1545   1.269       .  A
O1537     Ni1541   1.909       .  S
O1537     Ni1559   1.904       .  S
O1537     Ni1553   1.897       .  S
O1537      H1560   0.967       .  S
C1538      O1555   1.264       .  A
C1538      O1547   1.271       .  A
C1538      C1800   1.477       .  S
O1539     Ni1558   1.916       .  S
O1539      C1545   1.268       .  A
O1540     Ni1558   1.899       .  S
O1540      C1542   1.270       .  A
Ni1541     O1544   1.911       .  S
Ni1541     O1546   1.902   1_565  S
C1542      O1552   1.283       .  A
C1542      C1782   1.476       .  S
O1543     Ni1559   1.923       .  S
O1543      C1549   1.277       .  A
O1544      C1549   1.275       .  A
C1545      C1872   1.475   1_565  S
O1546      C1548   1.268       .  A
O1547     Ni1558   1.932       .  S
C1548      O1554   1.270       .  A
C1548      C1960   1.481       .  S
C1549      C1818   1.478       .  S
H1550      O1551   0.966   1_545  S
O1551     Ni1559   1.940       .  S
O1551     Ni1553   1.920       .  S
O1551     Ni1558   1.916       .  S
O1552     Ni1553   1.960       .  S
Ni1553     O1557   1.919       .  S
Ni1553     O1555   1.902       .  S
O1554     Ni1559   1.931   1_545  S
C1556      O1557   1.268       .  A
C1556      C2430   1.482       .  S
O1561     Ni1567   1.917       .  S
O1561      C1582   1.266   1_455  A
O1562     Ni1585   1.896       .  S
O1562      C1571   1.265       .  A
O1563     Ni1567   1.903       .  S
O1563     Ni1585   1.893       .  S
O1563     Ni1579   1.914   1_455  S
O1563      H1586   0.966       .  S
C1564      O1581   1.278       .  A
C1564      O1573   1.278       .  A
C1564      C1726   1.480       .  S
O1565     Ni1584   1.942   1_455  S
O1565      C1571   1.276       .  A
O1566     Ni1584   1.909       .  S
O1566      C1568   1.272       .  A
Ni1567     O1570   1.916       .  S
Ni1567     O1572   1.910       .  S
C1568      O1578   1.275       .  A
C1568      C1854   1.478       .  S
O1569     Ni1585   1.930       .  S
O1569      C1575   1.279       .  A
O1570      C1575   1.278       .  A
C1571      C1762   1.476       .  S
O1572      C1574   1.267       .  A
O1573     Ni1584   1.920       .  S
C1574      O1580   1.266       .  A
C1574      C2302   1.473       .  S
C1575      C1746   1.478       .  S
H1576      O1577   0.966       .  S
O1577     Ni1585   1.910   1_655  S
O1577     Ni1579   1.907       .  S
O1577     Ni1584   1.900       .  S
O1578     Ni1579   1.937       .  S
Ni1579     O1583   1.926       .  S
Ni1579     O1581   1.924       .  S
O1580     Ni1585   1.919       .  S
C1582      O1583   1.273       .  A
C1582      C4660   1.470       .  S
O1587     Ni1593   1.928       .  S
O1587      C1608   1.272       .  A
O1588     Ni1611   1.914       .  S
O1588      C1597   1.271       .  A
O1589     Ni1593   1.903       .  S
O1589     Ni1611   1.908       .  S
O1589     Ni1605   1.912       .  S
O1589      H1612   0.966       .  S
C1590      O1607   1.278       .  A
C1590      O1599   1.276       .  A
C1590      C1744   1.478       .  S
O1591     Ni1610   1.921       .  S
O1591      C1597   1.269       .  A
O1592     Ni1610   1.916       .  S
O1592      C1594   1.270       .  A
Ni1593     O1596   1.924       .  S
Ni1593     O1598   1.900       .  S
C1594      O1604   1.270       .  A
C1594      C1926   1.478       .  S
O1595     Ni1611   1.918       .  S
O1595      C1601   1.276       .  A
O1596      C1601   1.277       .  A
C1597      C1708   1.472       .  S
O1598      C1600   1.269       .  A
O1599     Ni1610   1.912       .  S
C1600      O1606   1.274       .  A
C1600      C2248   1.483       .  S
C1601      C1728   1.480       .  S
H1602      O1603   0.966       .  S
O1603     Ni1611   1.915       .  S
O1603     Ni1605   1.899       .  S
O1603     Ni1610   1.904       .  S
O1604     Ni1605   1.927       .  S
Ni1605     O1609   1.908       .  S
Ni1605     O1607   1.930       .  S
O1606     Ni1611   1.941       .  S
C1608      O1609   1.268       .  A
C1608      C4716   1.479       .  S
O1613     Ni1619   1.925       .  S
O1613      C1634   1.271       .  A
O1614     Ni1637   1.916       .  S
O1614      C1623   1.270       .  A
O1615     Ni1619   1.908       .  S
O1615     Ni1637   1.905       .  S
O1615     Ni1631   1.911       .  S
O1615      H1638   0.969       .  S
C1616      O1633   1.276       .  A
C1616      O1625   1.276       .  A
C1616      C1690   1.476       .  S
O1617     Ni1636   1.926       .  S
O1617      C1623   1.269       .  A
O1618     Ni1636   1.898       .  S
O1618      C1620   1.266       .  A
Ni1619     O1622   1.916       .  S
Ni1619     O1624   1.912       .  S
C1620      O1630   1.275       .  A
C1620      C1834   1.475       .  S
O1621     Ni1637   1.920       .  S
O1621      C1627   1.276       .  A
O1622      C1627   1.276       .  A
C1623      C1764   1.474       .  S
O1624      C1626   1.270       .  A
O1625     Ni1636   1.917       .  S
C1626      O1632   1.272       .  A
C1626      C2176   1.479       .  S
C1627      C1672   1.477   1_455  S
H1628      O1629   0.966       .  S
O1629     Ni1637   1.911       .  S
O1629     Ni1631   1.911       .  S
O1629     Ni1636   1.901       .  S
O1630     Ni1631   1.940       .  S
Ni1631     O1635   1.915       .  S
Ni1631     O1633   1.920       .  S
O1632     Ni1637   1.932       .  S
C1634      O1635   1.270       .  A
C1634      C2880   1.480       .  S
O1639     Ni1645   1.932       .  S
O1639      C1660   1.273       .  A
O1640     Ni1663   1.912       .  S
O1640      C1649   1.271       .  A
O1641     Ni1645   1.910       .  S
O1641     Ni1663   1.908       .  S
O1641     Ni1657   1.914       .  S
O1641      H1664   0.966       .  S
C1642      O1659   1.277       .  A
C1642      O1651   1.278       .  A
C1642      C1674   1.476       .  S
O1643     Ni1662   1.924       .  S
O1643      C1649   1.270       .  A
O1644     Ni1662   1.913       .  S
O1644      C1646   1.269       .  A
Ni1645     O1648   1.915       .  S
Ni1645     O1650   1.908       .  S
C1646      O1656   1.268       .  A
C1646      C1780   1.479       .  S
O1647     Ni1663   1.919       .  S
O1647      C1653   1.275       .  A
O1648      C1653   1.275       .  A
C1649      C1710   1.472       .  S
O1650      C1652   1.270       .  A
O1651     Ni1662   1.917       .  S
C1652      O1658   1.274       .  A
C1652      C2142   1.477       .  S
C1653      C1692   1.476       .  S
H1654      O1655   0.966       .  S
O1655     Ni1663   1.907       .  S
O1655     Ni1657   1.896       .  S
O1655     Ni1662   1.906       .  S
O1656     Ni1657   1.921       .  S
Ni1657     O1661   1.898       .  S
Ni1657     O1659   1.921       .  S
O1658     Ni1663   1.936       .  S
C1660      O1661   1.264       .  A
C1660      C2826   1.473       .  S
C1665      C1673   1.484       .  S
C1665      C1666   1.405       .  A
C1665      C1670   1.406       .  A
C1666      C1667   1.397       .  A
C1666      H1675   1.084       .  S
C1667      C1668   1.406       .  A
C1667      H1676   1.081       .  S
C1668      C1671   1.483       .  S
C1668      C1669   1.404       .  A
C1669      C1670   1.396       .  A
C1669      H1677   1.084       .  S
C1670      H1678   1.080       .  S
C1671      H1679   1.087       .  S
C1671      C1672   1.348       .  D
C1672      H1680   1.084       .  S
C1673      H1681   1.087       .  S
C1673      C1674   1.349       .  D
C1674      H1682   1.084       .  S
C1683      C1691   1.483       .  S
C1683      C1684   1.404       .  A
C1683      C1688   1.406       .  A
C1684      C1685   1.397       .  A
C1684      H1693   1.084       .  S
C1685      C1686   1.405       .  A
C1685      H1694   1.081       .  S
C1686      C1689   1.481       .  S
C1686      C1687   1.403       .  A
C1687      C1688   1.396       .  A
C1687      H1695   1.084       .  S
C1688      H1696   1.081       .  S
C1689      H1697   1.087       .  S
C1689      C1690   1.348       .  D
C1690      H1698   1.085       .  S
C1691      H1699   1.087       .  S
C1691      C1692   1.348       .  D
C1692      H1700   1.084       .  S
C1701      C1709   1.482       .  S
C1701      C1702   1.401       .  A
C1701      C1706   1.408       .  A
C1702      C1703   1.398       .  A
C1702      H1711   1.083       .  S
C1703      C1704   1.408       .  A
C1703      H1712   1.083       .  S
C1704      C1707   1.481       .  S
C1704      C1705   1.401       .  A
C1705      C1706   1.398       .  A
C1705      H1713   1.083       .  S
C1706      H1714   1.083       .  S
C1707      H1715   1.087       .  S
C1707      C1708   1.341       .  D
C1708      H1716   1.087       .  S
C1709      H1717   1.087       .  S
C1709      C1710   1.342       .  D
C1710      H1718   1.087       .  S
C1719      C1727   1.484       .  S
C1719      C1720   1.405       .  A
C1719      C1724   1.405       .  A
C1720      C1721   1.398       .  A
C1720      H1729   1.083       .  S
C1721      C1722   1.405       .  A
C1721      H1730   1.081       .  S
C1722      C1725   1.484       .  S
C1722      C1723   1.405       .  A
C1723      C1724   1.398       .  A
C1723      H1731   1.083       .  S
C1724      H1732   1.082       .  S
C1725      H1733   1.087       .  S
C1725      C1726   1.350       .  D
C1726      H1734   1.085       .  S
C1727      H1735   1.087       .  S
C1727      C1728   1.350       .  D
C1728      H1736   1.085       .  S
C1737      C1745   1.483       .  S
C1737      C1738   1.403       .  A
C1737      C1742   1.406       .  A
C1738      C1739   1.397       .  A
C1738      H1747   1.083       .  S
C1739      C1740   1.406       .  A
C1739      H1748   1.081       .  S
C1740      C1743   1.485       .  S
C1740      C1741   1.404       .  A
C1741      C1742   1.398       .  A
C1741      H1749   1.083       .  S
C1742      H1750   1.082       .  S
C1743      H1751   1.087       .  S
C1743      C1744   1.349       .  D
C1744      H1752   1.084       .  S
C1745      H1753   1.087       .  S
C1745      C1746   1.348       .  D
C1746      H1754   1.085       .  S
C1755      C1763   1.486       .  S
C1755      C1756   1.402       .  A
C1755      C1760   1.408       .  A
C1756      C1757   1.401       .  A
C1756      H1765   1.083       .  S
C1757      C1758   1.409       .  A
C1757      H1766   1.082       .  S
C1758      C1761   1.484       .  S
C1758      C1759   1.401       .  A
C1759      C1760   1.397       .  A
C1759      H1767   1.083       .  S
C1760      H1768   1.083       .  S
C1761      H1769   1.087       .  S
C1761      C1762   1.343       .  D
C1762      H1770   1.086       .  S
C1763      H1771   1.087       .  S
C1763      C1764   1.343       .  D
C1764      H1772   1.087       .  S
C1773      C1781   1.490       .  S
C1773      C1774   1.404       .  A
C1773      C1778   1.407       .  A
C1774      C1775   1.401       .  A
C1774      H1783   1.083       .  S
C1775      C1776   1.410       .  A
C1775      H1784   1.080       .  S
C1776      C1779   1.491       .  S
C1776      C1777   1.404       .  A
C1777      C1778   1.397       .  A
C1777      H1785   1.083       .  S
C1778      H1786   1.082       .  S
C1779      H1787   1.087       .  S
C1779      C1780   1.347       .  D
C1780      H1788   1.084       .  S
C1781      H1789   1.087       .  S
C1781      C1782   1.346       .  D
C1782      H1790   1.085       .  S
C1791      C1799   1.489       .  S
C1791      C1792   1.405       .  A
C1791      C1796   1.408       .  A
C1792      C1793   1.397       .  A
C1792      H1801   1.083       .  S
C1793      C1794   1.406       .  A
C1793      H1802   1.080       .  S
C1794      C1797   1.486       .  S
C1794      C1795   1.404       .  A
C1795      C1796   1.398       .  A
C1795      H1803   1.084       .  S
C1796      H1804   1.079       .  S
C1797      H1805   1.087       .  S
C1797      C1798   1.349       .  D
C1798      H1806   1.083       .  S
C1799      H1807   1.087       .  S
C1799      C1800   1.348       .  D
C1800      H1808   1.082       .  S
C1809      C1817   1.484       .  S
C1809      C1810   1.405       .  A
C1809      C1814   1.405       .  A
C1810      C1811   1.395   1_655  A
C1810      H1819   1.084   1_565  S
C1811      C1812   1.406       .  A
C1811      H1820   1.079   1_565  S
C1812      C1815   1.486       .  S
C1812      C1813   1.406       .  A
C1813      C1814   1.397   1_455  A
C1813      H1821   1.084       .  S
C1814      H1822   1.080       .  S
C1815      H1823   1.087       .  S
C1815      C1816   1.350       .  D
C1816      H1824   1.083       .  S
C1817      H1825   1.087       .  S
C1817      C1818   1.351       .  D
C1818      H1826   1.083       .  S
C1827      C1835   1.492       .  S
C1827      C1828   1.404       .  A
C1827      C1832   1.411       .  A
C1828      C1829   1.396       .  A
C1828      H1837   1.084       .  S
C1829      C1830   1.406       .  A
C1829      H1838   1.083       .  S
C1830      C1833   1.489       .  S
C1830      C1831   1.403       .  A
C1831      C1832   1.403       .  A
C1831      H1839   1.083       .  S
C1832      H1840   1.080       .  S
C1833      H1841   1.087       .  S
C1833      C1834   1.344       .  D
C1834      H1842   1.087       .  S
C1835      H1843   1.087       .  S
C1835      C1836   1.348       .  D
C1836      H1844   1.083       .  S
C1845      C1853   1.485       .  S
C1845      C1846   1.404       .  A
C1845      C1850   1.406       .  A
C1846      C1847   1.400       .  A
C1846      H1855   1.082   1_655  S
C1847      C1848   1.405       .  A
C1847      H1856   1.083       .  S
C1848      C1851   1.486       .  S
C1848      C1849   1.405       .  A
C1849      C1850   1.401       .  A
C1849      H1857   1.083       .  S
C1850      H1858   1.083       .  S
C1851      H1859   1.088       .  S
C1851      C1852   1.347       .  D
C1852      H1860   1.086       .  S
C1853      H1861   1.088       .  S
C1853      C1854   1.348       .  D
C1854      H1862   1.086       .  S
C1863      C1871   1.486       .  S
C1863      C1864   1.402   1_545  A
C1863      C1868   1.408       .  A
C1864      C1865   1.400       .  A
C1864      H1873   1.083       .  S
C1865      C1866   1.409   1_565  A
C1865      H1874   1.082       .  S
C1866      C1869   1.487   1_545  S
C1866      C1867   1.402       .  A
C1867      C1868   1.398       .  A
C1867      H1875   1.083       .  S
C1868      H1876   1.082       .  S
C1869      H1877   1.087   1_565  S
C1869      C1870   1.345       .  D
C1870      H1878   1.085       .  S
C1871      H1879   1.087       .  S
C1871      C1872   1.344       .  D
C1872      H1880   1.086   1_545  S
C1881      C1889   1.482       .  S
C1881      C1882   1.404       .  A
C1881      C1886   1.405       .  A
C1882      C1883   1.397       .  A
C1882      H1891   1.084       .  S
C1883      C1884   1.407       .  A
C1883      H1892   1.080       .  S
C1884      C1887   1.484       .  S
C1884      C1885   1.404       .  A
C1885      C1886   1.395       .  A
C1885      H1893   1.084       .  S
C1886      H1894   1.080       .  S
C1887      H1895   1.087       .  S
C1887      C1888   1.348       .  D
C1888      H1896   1.083       .  S
C1889      H1897   1.087       .  S
C1889      C1890   1.349       .  D
C1890      H1898   1.084       .  S
C1899      C1907   1.483       .  S
C1899      C1900   1.404       .  A
C1899      C1904   1.406       .  A
C1900      C1901   1.396       .  A
C1900      H1909   1.083       .  S
C1901      C1902   1.405       .  A
C1901      H1910   1.080       .  S
C1902      C1905   1.481       .  S
C1902      C1903   1.404       .  A
C1903      C1904   1.395       .  A
C1903      H1911   1.084       .  S
C1904      H1912   1.080       .  S
C1905      H1913   1.087       .  S
C1905      C1906   1.350       .  D
C1906      H1914   1.084       .  S
C1907      H1915   1.087       .  S
C1907      C1908   1.348       .  D
C1908      H1916   1.083       .  S
C1917      C1925   1.484       .  S
C1917      C1918   1.404       .  A
C1917      C1922   1.405       .  A
C1918      C1919   1.401       .  A
C1918      H1927   1.083       .  S
C1919      C1920   1.406       .  A
C1919      H1928   1.083       .  S
C1920      C1923   1.486       .  S
C1920      C1921   1.404       .  A
C1921      C1922   1.400       .  A
C1921      H1929   1.083       .  S
C1922      H1930   1.083       .  S
C1923      H1931   1.087       .  S
C1923      C1924   1.347       .  D
C1924      H1932   1.086       .  S
C1925      H1933   1.087       .  S
C1925      C1926   1.346       .  D
C1926      H1934   1.086       .  S
C1935      C1943   1.489       .  S
C1935      C1936   1.402       .  A
C1935      C1940   1.408       .  A
C1936      C1937   1.401       .  A
C1936      H1945   1.083       .  S
C1937      C1938   1.409       .  A
C1937      H1946   1.082       .  S
C1938      C1941   1.491       .  S
C1938      C1939   1.403       .  A
C1939      C1940   1.401       .  A
C1939      H1947   1.083       .  S
C1940      H1948   1.083       .  S
C1941      H1949   1.087   1_565  S
C1941      C1942   1.345       .  D
C1942      H1950   1.086       .  S
C1943      H1951   1.086   1_565  S
C1943      C1944   1.344       .  D
C1944      H1952   1.087       .  S
C1953      C1961   1.486       .  S
C1953      C1954   1.408       .  A
C1953      C1958   1.402       .  A
C1954      C1955   1.404       .  A
C1954      H1963   1.081       .  S
C1955      C1956   1.410       .  A
C1955      H1964   1.081       .  S
C1956      C1959   1.488       .  S
C1956      C1957   1.402       .  A
C1957      C1958   1.393       .  A
C1957      H1965   1.084       .  S
C1958      H1966   1.084       .  S
C1959      H1967   1.087       .  S
C1959      C1960   1.347       .  D
C1960      H1968   1.084       .  S
C1961      H1969   1.087       .  S
C1961      C1962   1.348       .  D
C1962      H1970   1.084       .  S
C1971      C1979   1.486       .  S
C1971      C1972   1.408       .  A
C1971      C1976   1.401       .  A
C1972      C1973   1.406       .  A
C1972      H1981   1.082       .  S
C1973      C1974   1.411       .  A
C1973      H1982   1.080       .  S
C1974      C1977   1.491       .  S
C1974      C1975   1.403       .  A
C1975      C1976   1.392       .  A
C1975      H1983   1.084       .  S
C1976      H1984   1.084       .  S
C1977      H1985   1.087       .  S
C1977      C1978   1.349       .  D
C1978      H1986   1.084       .  S
C1979      H1987   1.087       .  S
C1979      C1980   1.350       .  D
C1980      H1988   1.085       .  S
C1989      C1997   1.481       .  S
C1989      C1990   1.403       .  A
C1989      C1994   1.406       .  A
C1990      C1991   1.396       .  A
C1990      H1999   1.084       .  S
C1991      C1992   1.406       .  A
C1991      H2000   1.082       .  S
C1992      C1995   1.481       .  S
C1992      C1993   1.403       .  A
C1993      C1994   1.398       .  A
C1993      H2001   1.083       .  S
C1994      H2002   1.081       .  S
C1995      H2003   1.087       .  S
C1995      C1996   1.347       .  D
C1996      H2004   1.085       .  S
C1997      H2005   1.087       .  S
C1997      C1998   1.347       .  D
C1998      H2006   1.085       .  S
C2007      C2015   1.483       .  S
C2007      C2008   1.403       .  A
C2007      C2012   1.407       .  A
C2008      C2009   1.393       .  A
C2008      H2017   1.084       .  S
C2009      C2010   1.405       .  A
C2009      H2018   1.080       .  S
C2010      C2013   1.485       .  S
C2010      C2011   1.405       .  A
C2011      C2012   1.399       .  A
C2011      H2019   1.083       .  S
C2012      H2020   1.080       .  S
C2013      H2021   1.087       .  S
C2013      C2014   1.349       .  D
C2014      H2022   1.083       .  S
C2015      H2023   1.087       .  S
C2015      C2016   1.349       .  D
C2016      H2024   1.083       .  S
C2025      C2033   1.479       .  S
C2025      C2026   1.404       .  A
C2025      C2030   1.403       .  A
C2026      C2027   1.399       .  A
C2026      H2035   1.083       .  S
C2027      C2028   1.404       .  A
C2027      H2036   1.083       .  S
C2028      C2031   1.483       .  S
C2028      C2029   1.406       .  A
C2029      C2030   1.400       .  A
C2029      H2037   1.083       .  S
C2030      H2038   1.083       .  S
C2031      H2039   1.087       .  S
C2031      C2032   1.346       .  D
C2032      H2040   1.086       .  S
C2033      H2041   1.087       .  S
C2033      C2034   1.344       .  D
C2034      H2042   1.086       .  S
C2043      C2051   1.485       .  S
C2043      C2044   1.402       .  A
C2043      C2048   1.408       .  A
C2044      C2045   1.400       .  A
C2044      H2053   1.083       .  S
C2045      C2046   1.408       .  A
C2045      H2054   1.083       .  S
C2046      C2049   1.483       .  S
C2046      C2047   1.401       .  A
C2047      C2048   1.398       .  A
C2047      H2055   1.083       .  S
C2048      H2056   1.083       .  S
C2049      H2057   1.087       .  S
C2049      C2050   1.344       .  D
C2050      H2058   1.086       .  S
C2051      H2059   1.087       .  S
C2051      C2052   1.343       .  D
C2052      H2060   1.087       .  S
C2061      C2069   1.486       .  S
C2061      C2062   1.410       .  A
C2061      C2066   1.402       .  A
C2062      C2063   1.404       .  A
C2062      H2071   1.080       .  S
C2063      C2064   1.408       .  A
C2063      H2072   1.082       .  S
C2064      C2067   1.482       .  S
C2064      C2065   1.400       .  A
C2065      C2066   1.390       .  A
C2065      H2073   1.084       .  S
C2066      H2074   1.084       .  S
C2067      H2075   1.087       .  S
C2067      C2068   1.347       .  D
C2068      H2076   1.085       .  S
C2069      H2077   1.087       .  S
C2069      C2070   1.347       .  D
C2070      H2078   1.084       .  S
C2079      C2087   1.483       .  S
C2079      C2080   1.404       .  A
C2079      C2084   1.406       .  A
C2080      C2081   1.399       .  A
C2080      H2089   1.083       .  S
C2081      C2082   1.405       .  A
C2081      H2090   1.082       .  S
C2082      C2085   1.479       .  S
C2082      C2083   1.402       .  A
C2083      C2084   1.394       .  A
C2083      H2091   1.084       .  S
C2084      H2092   1.081       .  S
C2085      H2093   1.087       .  S
C2085      C2086   1.346       .  D
C2086      H2094   1.085       .  S
C2087      H2095   1.087       .  S
C2087      C2088   1.347       .  D
C2088      H2096   1.085       .  S
C2097      C2105   1.486       .  S
C2097      C2098   1.405       .  A
C2097      C2102   1.405       .  A
C2098      C2099   1.399   1_455  A
C2098      H2107   1.083       .  S
C2099      C2100   1.406       .  A
C2099      H2108   1.080       .  S
C2100      C2103   1.486       .  S
C2100      C2101   1.405       .  A
C2101      C2102   1.395   1_655  A
C2101      H2109   1.084       .  S
C2102      H2110   1.080       .  S
C2103      H2111   1.087       .  S
C2103      C2104   1.350       .  D
C2104      H2112   1.083       .  S
C2105      H2113   1.087       .  S
C2105      C2106   1.350       .  D
C2106      H2114   1.084       .  S
C2115      C2123   1.483       .  S
C2115      C2116   1.403       .  A
C2115      C2120   1.406       .  A
C2116      C2117   1.399       .  A
C2116      H2125   1.083       .  S
C2117      C2118   1.407       .  A
C2117      H2126   1.082       .  S
C2118      C2121   1.482       .  S
C2118      C2119   1.402       .  A
C2119      C2120   1.397       .  A
C2119      H2127   1.083       .  S
C2120      H2128   1.082       .  S
C2121      H2129   1.087       .  S
C2121      C2122   1.345       .  D
C2122      H2130   1.086       .  S
C2123      H2131   1.087       .  S
C2123      C2124   1.345       .  D
C2124      H2132   1.086       .  S
C2133      C2141   1.481       .  S
C2133      C2134   1.404       .  A
C2133      C2138   1.405       .  A
C2134      C2135   1.401       .  A
C2134      H2143   1.083       .  S
C2135      C2136   1.406       .  A
C2135      H2144   1.083       .  S
C2136      C2139   1.482       .  S
C2136      C2137   1.403       .  A
C2137      C2138   1.400       .  A
C2137      H2145   1.083       .  S
C2138      H2146   1.083       .  S
C2139      H2147   1.087       .  S
C2139      C2140   1.344       .  D
C2140      H2148   1.087       .  S
C2141      H2149   1.087       .  S
C2141      C2142   1.346       .  D
C2142      H2150   1.086       .  S
C2151      C2159   1.484       .  S
C2151      C2152   1.405       .  A
C2151      C2156   1.404       .  A
C2152      C2153   1.401       .  A
C2152      H2161   1.083       .  S
C2153      C2154   1.406       .  A
C2153      H2162   1.083       .  S
C2154      C2157   1.485       .  S
C2154      C2155   1.404       .  A
C2155      C2156   1.400       .  A
C2155      H2163   1.083       .  S
C2156      H2164   1.083       .  S
C2157      H2165   1.087       .  S
C2157      C2158   1.348       .  D
C2158      H2166   1.086       .  S
C2159      H2167   1.088       .  S
C2159      C2160   1.346       .  D
C2160      H2168   1.086       .  S
C2169      C2177   1.483       .  S
C2169      C2170   1.404       .  A
C2169      C2174   1.405       .  A
C2170      C2171   1.401       .  A
C2170      H2179   1.083       .  S
C2171      C2172   1.405       .  A
C2171      H2180   1.083       .  S
C2172      C2175   1.483       .  S
C2172      C2173   1.404       .  A
C2173      C2174   1.401       .  A
C2173      H2181   1.083       .  S
C2174      H2182   1.083       .  S
C2175      H2183   1.087       .  S
C2175      C2176   1.345       .  D
C2176      H2184   1.087       .  S
C2177      H2185   1.087       .  S
C2177      C2178   1.346       .  D
C2178      H2186   1.086       .  S
C2187      C2195   1.488       .  S
C2187      C2188   1.406       .  A
C2187      C2192   1.407       .  A
C2188      C2189   1.399       .  A
C2188      H2197   1.083       .  S
C2189      C2190   1.405       .  A
C2189      H2198   1.082       .  S
C2190      C2193   1.482       .  S
C2190      C2191   1.403       .  A
C2191      C2192   1.396       .  A
C2191      H2199   1.084       .  S
C2192      H2200   1.080       .  S
C2193      H2201   1.087       .  S
C2193      C2194   1.349       .  D
C2194      H2202   1.085       .  S
C2195      H2203   1.087       .  S
C2195      C2196   1.349       .  D
C2196      H2204   1.083       .  S
C2205      C2213   1.486       .  S
C2205      C2206   1.405       .  A
C2205      C2210   1.407       .  A
C2206      C2207   1.397       .  A
C2206      H2215   1.083       .  S
C2207      C2208   1.405       .  A
C2207      H2216   1.081       .  S
C2208      C2211   1.483       .  S
C2208      C2209   1.404       .  A
C2209      C2210   1.396       .  A
C2209      H2217   1.084       .  S
C2210      H2218   1.080       .  S
C2211      H2219   1.087       .  S
C2211      C2212   1.349       .  D
C2212      H2220   1.084       .  S
C2213      H2221   1.087       .  S
C2213      C2214   1.348       .  D
C2214      H2222   1.083       .  S
C2223      C2231   1.488       .  S
C2223      C2224   1.406       .  A
C2223      C2228   1.405       .  A
C2224      C2225   1.403       .  A
C2224      H2233   1.083   1_655  S
C2225      C2226   1.406       .  A
C2225      H2234   1.083   1_655  S
C2226      C2229   1.488       .  S
C2226      C2227   1.405       .  A
C2227      C2228   1.401       .  A
C2227      H2235   1.082       .  S
C2228      H2236   1.083       .  S
C2229      H2237   1.087       .  S
C2229      C2230   1.350       .  D
C2230      H2238   1.086       .  S
C2231      H2239   1.087       .  S
C2231      C2232   1.349       .  D
C2232      H2240   1.086   1_655  S
C2241      C2249   1.492       .  S
C2241      C2242   1.403       .  A
C2241      C2246   1.411       .  A
C2242      C2243   1.395       .  A
C2242      H2251   1.084       .  S
C2243      C2244   1.402       .  A
C2243      H2252   1.084       .  S
C2244      C2247   1.487       .  S
C2244      C2245   1.407       .  A
C2245      C2246   1.403       .  A
C2245      H2253   1.081       .  S
C2246      H2254   1.079       .  S
C2247      H2255   1.087       .  S
C2247      C2248   1.349       .  D
C2248      H2256   1.085       .  S
C2249      H2257   1.087       .  S
C2249      C2250   1.348       .  D
C2250      H2258   1.083       .  S
C2259      C2267   1.482       .  S
C2259      C2260   1.403       .  A
C2259      C2264   1.405       .  A
C2260      C2261   1.399       .  A
C2260      H2269   1.083       .  S
C2261      C2262   1.405       .  A
C2261      H2270   1.082       .  S
C2262      C2265   1.485       .  S
C2262      C2263   1.406       .  A
C2263      C2264   1.402       .  A
C2263      H2271   1.083       .  S
C2264      H2272   1.083       .  S
C2265      H2273   1.087       .  S
C2265      C2266   1.348       .  D
C2266      H2274   1.086       .  S
C2267      H2275   1.087       .  S
C2267      C2268   1.346       .  D
C2268      H2276   1.086       .  S
C2277      C2285   1.486       .  S
C2277      C2278   1.404       .  A
C2277      C2282   1.406       .  A
C2278      C2279   1.400       .  A
C2278      H2287   1.083       .  S
C2279      C2280   1.407       .  A
C2279      H2288   1.082       .  S
C2280      C2283   1.485       .  S
C2280      C2281   1.403       .  A
C2281      C2282   1.398       .  A
C2281      H2289   1.083       .  S
C2282      H2290   1.082       .  S
C2283      H2291   1.087       .  S
C2283      C2284   1.346       .  D
C2284      H2292   1.086       .  S
C2285      H2293   1.087       .  S
C2285      C2286   1.348       .  D
C2286      H2294   1.085       .  S
C2295      C2303   1.476       .  S
C2295      C2296   1.401       .  A
C2295      C2300   1.404       .  A
C2296      C2297   1.398       .  A
C2296      H2305   1.083   1_455  S
C2297      C2298   1.406       .  A
C2297      H2306   1.083   1_455  S
C2298      C2301   1.479       .  S
C2298      C2299   1.402       .  A
C2299      C2300   1.398       .  A
C2299      H2307   1.083       .  S
C2300      H2308   1.083       .  S
C2301      H2309   1.087       .  S
C2301      C2302   1.342       .  D
C2302      H2310   1.087       .  S
C2303      H2311   1.087       .  S
C2303      C2304   1.342       .  D
C2304      H2312   1.087       .  S
C2313      C2321   1.486       .  S
C2313      C2314   1.405       .  A
C2313      C2318   1.407       .  A
C2314      C2315   1.396       .  A
C2314      H2323   1.084       .  S
C2315      C2316   1.405       .  A
C2315      H2324   1.081       .  S
C2316      C2319   1.483       .  S
C2316      C2317   1.404       .  A
C2317      C2318   1.397       .  A
C2317      H2325   1.084       .  S
C2318      H2326   1.079       .  S
C2319      H2327   1.087       .  S
C2319      C2320   1.348       .  D
C2320      H2328   1.084       .  S
C2321      H2329   1.087       .  S
C2321      C2322   1.349       .  D
C2322      H2330   1.083       .  S
C2331      C2339   1.482       .  S
C2331      C2332   1.402       .  A
C2331      C2336   1.406       .  A
C2332      C2333   1.394       .  A
C2332      H2341   1.084       .  S
C2333      C2334   1.407       .  A
C2333      H2342   1.079       .  S
C2334      C2337   1.485       .  S
C2334      C2335   1.404       .  A
C2335      C2336   1.396       .  A
C2335      H2343   1.084       .  S
C2336      H2344   1.080       .  S
C2337      H2345   1.087       .  S
C2337      C2338   1.347       .  D
C2338      H2346   1.082       .  S
C2339      H2347   1.087       .  S
C2339      C2340   1.346       .  D
C2340      H2348   1.084       .  S
C2349      C2357   1.481       .  S
C2349      C2350   1.404       .  A
C2349      C2354   1.404       .  A
C2350      C2351   1.400       .  A
C2350      H2359   1.083       .  S
C2351      C2352   1.406       .  A
C2351      H2360   1.082       .  S
C2352      C2355   1.482       .  S
C2352      C2353   1.403       .  A
C2353      C2354   1.398       .  A
C2353      H2361   1.083       .  S
C2354      H2362   1.083       .  S
C2355      H2363   1.088       .  S
C2355      C2356   1.344       .  D
C2356      H2364   1.086       .  S
C2357      H2365   1.088       .  S
C2357      C2358   1.344       .  D
C2358      H2366   1.086       .  S
C2367      C2375   1.484       .  S
C2367      C2368   1.403       .  A
C2367      C2372   1.406       .  A
C2368      C2369   1.398       .  A
C2368      H2377   1.083   1_455  S
C2369      C2370   1.408       .  A
C2369      H2378   1.081       .  S
C2370      C2373   1.489       .  S
C2370      C2371   1.405       .  A
C2371      C2372   1.400       .  A
C2371      H2379   1.083       .  S
C2372      H2380   1.082       .  S
C2373      H2381   1.087       .  S
C2373      C2374   1.347       .  D
C2374      H2382   1.085       .  S
C2375      H2383   1.087       .  S
C2375      C2376   1.346       .  D
C2376      H2384   1.086       .  S
C2385      C2393   1.480   1_545  S
C2385      C2386   1.404   1_545  A
C2385      C2390   1.405       .  A
C2386      C2387   1.395       .  A
C2386      H2395   1.084       .  S
C2387      C2388   1.405   1_565  A
C2387      H2396   1.081       .  S
C2388      C2391   1.480       .  S
C2388      C2389   1.403       .  A
C2389      C2390   1.396       .  A
C2389      H2397   1.083       .  S
C2390      H2398   1.081       .  S
C2391      H2399   1.087       .  S
C2391      C2392   1.347       .  D
C2392      H2400   1.085   1_545  S
C2393      H2401   1.087       .  S
C2393      C2394   1.349   1_565  D
C2394      H2402   1.084       .  S
C2403      C2411   1.481       .  S
C2403      C2404   1.403       .  A
C2403      C2408   1.406   1_545  A
C2404      C2405   1.397       .  A
C2404      H2413   1.084       .  S
C2405      C2406   1.407       .  A
C2405      H2414   1.080       .  S
C2406      C2409   1.482       .  S
C2406      C2407   1.403   1_545  A
C2407      C2408   1.395       .  A
C2407      H2415   1.084       .  S
C2408      H2416   1.081       .  S
C2409      H2417   1.087       .  S
C2409      C2410   1.347       .  D
C2410      H2418   1.084       .  S
C2411      H2419   1.087       .  S
C2411      C2412   1.347       .  D
C2412      H2420   1.084       .  S
C2421      C2429   1.487       .  S
C2421      C2422   1.405       .  A
C2421      C2426   1.406       .  A
C2422      C2423   1.396   1_554  A
C2422      H2431   1.084   1_565  S
C2423      C2424   1.405       .  A
C2423      H2432   1.081   1_565  S
C2424      C2427   1.488       .  S
C2424      C2425   1.407       .  A
C2425      C2426   1.401   1_556  A
C2425      H2433   1.083       .  S
C2426      H2434   1.081       .  S
C2427      H2435   1.087       .  S
C2427      C2428   1.351   1_565  D
C2428      H2436   1.084       .  S
C2429      H2437   1.087   1_565  S
C2429      C2430   1.351       .  D
C2430      H2438   1.084       .  S
C2439      C2447   1.488       .  S
C2439      C2440   1.402       .  A
C2439      C2444   1.409       .  A
C2440      C2441   1.400       .  A
C2440      H2449   1.083   1_565  S
C2441      C2442   1.408       .  A
C2441      H2450   1.082   1_565  S
C2442      C2445   1.487       .  S
C2442      C2443   1.402       .  A
C2443      C2444   1.400       .  A
C2443      H2451   1.083       .  S
C2444      H2452   1.082       .  S
C2445      H2453   1.087       .  S
C2445      C2446   1.345   1_565  D
C2446      H2454   1.086       .  S
C2447      H2455   1.087       .  S
C2447      C2448   1.344   1_565  D
C2448      H2456   1.086       .  S
C2457      C2465   1.490       .  S
C2457      C2458   1.406       .  A
C2457      C2462   1.407   1_545  A
C2458      C2459   1.399   1_554  A
C2458      H2467   1.083       .  S
C2459      C2460   1.406   1_545  A
C2459      H2468   1.080       .  S
C2460      C2463   1.488       .  S
C2460      C2461   1.405       .  A
C2461      C2462   1.397   1_556  A
C2461      H2469   1.084       .  S
C2462      H2470   1.079       .  S
C2463      H2471   1.087       .  S
C2463      C2464   1.349   1_565  D
C2464      H2472   1.083       .  S
C2465      H2473   1.087       .  S
C2465      C2466   1.351   1_545  D
C2466      H2474   1.082       .  S
C2475      C2483   1.486       .  S
C2475      C2476   1.405   1_545  A
C2475      C2480   1.406       .  A
C2476      C2477   1.399   1_465  A
C2476      H2485   1.083       .  S
C2477      C2478   1.406       .  A
C2477      H2486   1.080   1_545  S
C2478      C2481   1.483       .  S
C2478      C2479   1.403       .  A
C2479      C2480   1.394   1_655  A
C2479      H2487   1.084       .  S
C2480      H2488   1.080       .  S
C2481      H2489   1.087       .  S
C2481      C2482   1.349       .  D
C2482      H2490   1.084       .  S
C2483      H2491   1.087   1_545  S
C2483      C2484   1.348       .  D
C2484      H2492   1.083       .  S
C2493      C2501   1.484       .  S
C2493      C2494   1.404       .  A
C2493      C2498   1.405   1_545  A
C2494      C2495   1.399       .  A
C2494      H2503   1.083       .  S
C2495      C2496   1.408   1_545  A
C2495      H2504   1.080       .  S
C2496      C2499   1.485       .  S
C2496      C2497   1.404       .  A
C2497      C2498   1.394       .  A
C2497      H2505   1.084       .  S
C2498      H2506   1.081       .  S
C2499      H2507   1.087       .  S
C2499      C2500   1.348   1_565  D
C2500      H2508   1.083       .  S
C2501      H2509   1.087       .  S
C2501      C2502   1.348       .  D
C2502      H2510   1.084       .  S
C2511      C2519   1.478       .  S
C2511      C2512   1.401       .  A
C2511      C2516   1.408   1_545  A
C2512      C2513   1.395       .  A
C2512      H2521   1.083       .  S
C2513      C2514   1.405       .  A
C2513      H2522   1.083       .  S
C2514      C2517   1.475   1_545  S
C2514      C2515   1.400   1_545  A
C2515      C2516   1.396       .  A
C2515      H2523   1.083       .  S
C2516      H2524   1.082       .  S
C2517      H2525   1.087       .  S
C2517      C2518   1.341   1_565  D
C2518      H2526   1.087       .  S
C2519      H2527   1.087       .  S
C2519      C2520   1.343       .  D
C2520      H2528   1.086   1_545  S
C2529      C2537   1.477       .  S
C2529      C2530   1.402       .  A
C2529      C2534   1.405       .  A
C2530      C2531   1.397       .  A
C2530      H2539   1.083       .  S
C2531      C2532   1.404       .  A
C2531      H2540   1.083       .  S
C2532      C2535   1.477       .  S
C2532      C2533   1.402       .  A
C2533      C2534   1.398       .  A
C2533      H2541   1.083       .  S
C2534      H2542   1.083       .  S
C2535      H2543   1.087       .  S
C2535      C2536   1.342       .  D
C2536      H2544   1.087       .  S
C2537      H2545   1.087       .  S
C2537      C2538   1.343       .  D
C2538      H2546   1.086       .  S
C2547      C2555   1.481       .  S
C2547      C2548   1.404       .  A
C2547      C2552   1.406       .  A
C2548      C2549   1.395       .  A
C2548      H2557   1.084       .  S
C2549      C2550   1.405       .  A
C2549      H2558   1.081       .  S
C2550      C2553   1.479       .  S
C2550      C2551   1.403       .  A
C2551      C2552   1.395       .  A
C2551      H2559   1.084       .  S
C2552      H2560   1.080       .  S
C2553      H2561   1.087       .  S
C2553      C2554   1.348       .  D
C2554      H2562   1.084       .  S
C2555      H2563   1.087       .  S
C2555      C2556   1.348       .  D
C2556      H2564   1.084       .  S
C2565      C2573   1.482       .  S
C2565      C2566   1.404       .  A
C2565      C2570   1.406       .  A
C2566      C2567   1.396       .  A
C2566      H2575   1.084       .  S
C2567      C2568   1.405       .  A
C2567      H2576   1.080       .  S
C2568      C2571   1.481       .  S
C2568      C2569   1.403       .  A
C2569      C2570   1.395       .  A
C2569      H2577   1.084       .  S
C2570      H2578   1.080       .  S
C2571      H2579   1.087       .  S
C2571      C2572   1.348       .  D
C2572      H2580   1.084       .  S
C2573      H2581   1.087       .  S
C2573      C2574   1.348       .  D
C2574      H2582   1.083       .  S
C2583      C2591   1.480       .  S
C2583      C2584   1.405       .  A
C2583      C2588   1.403       .  A
C2584      C2585   1.399       .  A
C2584      H2593   1.083       .  S
C2585      C2586   1.403       .  A
C2585      H2594   1.083       .  S
C2586      C2589   1.482       .  S
C2586      C2587   1.405       .  A
C2587      C2588   1.399       .  A
C2587      H2595   1.083       .  S
C2588      H2596   1.083       .  S
C2589      H2597   1.087       .  S
C2589      C2590   1.345       .  D
C2590      H2598   1.086       .  S
C2591      H2599   1.087       .  S
C2591      C2592   1.344       .  D
C2592      H2600   1.087       .  S
C2601      C2609   1.492       .  S
C2601      C2602   1.403       .  A
C2601      C2606   1.410       .  A
C2602      C2603   1.400   1_554  A
C2602      H2611   1.083       .  S
C2603      C2604   1.409       .  A
C2603      H2612   1.082       .  S
C2604      C2607   1.491       .  S
C2604      C2605   1.402       .  A
C2605      C2606   1.399   1_556  A
C2605      H2613   1.083       .  S
C2606      H2614   1.081       .  S
C2607      H2615   1.087       .  S
C2607      C2608   1.343       .  D
C2608      H2616   1.085       .  S
C2609      H2617   1.087       .  S
C2609      C2610   1.343       .  D
C2610      H2618   1.085       .  S
C2619      C2627   1.481       .  S
C2619      C2620   1.404       .  A
C2619      C2624   1.403       .  A
C2620      C2621   1.400       .  A
C2620      H2629   1.083       .  S
C2621      C2622   1.405       .  A
C2621      H2630   1.083       .  S
C2622      C2625   1.482       .  S
C2622      C2623   1.405       .  A
C2623      C2624   1.399       .  A
C2623      H2631   1.083       .  S
C2624      H2632   1.083       .  S
C2625      H2633   1.088       .  S
C2625      C2626   1.346       .  D
C2626      H2634   1.086       .  S
C2627      H2635   1.087       .  S
C2627      C2628   1.346       .  D
C2628      H2636   1.086       .  S
C2637      C2645   1.483       .  S
C2637      C2638   1.401       .  A
C2637      C2642   1.407       .  A
C2638      C2639   1.399       .  A
C2638      H2647   1.083       .  S
C2639      C2640   1.408       .  A
C2639      H2648   1.082       .  S
C2640      C2643   1.484       .  S
C2640      C2641   1.402       .  A
C2641      C2642   1.398       .  A
C2641      H2649   1.083       .  S
C2642      H2650   1.083   1_655  S
C2643      H2651   1.087       .  S
C2643      C2644   1.344       .  D
C2644      H2652   1.086       .  S
C2645      H2653   1.087       .  S
C2645      C2646   1.341       .  D
C2646      H2654   1.087   1_655  S
C2655      C2663   1.483       .  S
C2655      C2656   1.404       .  A
C2655      C2660   1.405       .  A
C2656      C2657   1.397   1_554  A
C2656      H2665   1.083       .  S
C2657      C2658   1.406       .  A
C2657      H2666   1.081       .  S
C2658      C2661   1.484       .  S
C2658      C2659   1.405       .  A
C2659      C2660   1.396   1_556  A
C2659      H2667   1.084       .  S
C2660      H2668   1.081       .  S
C2661      H2669   1.087       .  S
C2661      C2662   1.349       .  D
C2662      H2670   1.084       .  S
C2663      H2671   1.087       .  S
C2663      C2664   1.348       .  D
C2664      H2672   1.084       .  S
C2673      C2681   1.484       .  S
C2673      C2674   1.405       .  A
C2673      C2678   1.404       .  A
C2674      C2675   1.399       .  A
C2674      H2683   1.084       .  S
C2675      C2676   1.406       .  A
C2675      H2684   1.080       .  S
C2676      C2679   1.486       .  S
C2676      C2677   1.406       .  A
C2677      C2678   1.396       .  A
C2677      H2685   1.083       .  S
C2678      H2686   1.081       .  S
C2679      H2687   1.087       .  S
C2679      C2680   1.351       .  D
C2680      H2688   1.084       .  S
C2681      H2689   1.087       .  S
C2681      C2682   1.351       .  D
C2682      H2690   1.084       .  S
C2691      C2699   1.482       .  S
C2691      C2692   1.404       .  A
C2691      C2696   1.404       .  A
C2692      C2693   1.397       .  A
C2692      H2701   1.084       .  S
C2693      C2694   1.406       .  A
C2693      H2702   1.081       .  S
C2694      C2697   1.483       .  S
C2694      C2695   1.405       .  A
C2695      C2696   1.396       .  A
C2695      H2703   1.084       .  S
C2696      H2704   1.081       .  S
C2697      H2705   1.087       .  S
C2697      C2698   1.350       .  D
C2698      H2706   1.084       .  S
C2699      H2707   1.087       .  S
C2699      C2700   1.349       .  D
C2700      H2708   1.085       .  S
C2709      C2717   1.480       .  S
C2709      C2710   1.403       .  A
C2709      C2714   1.405       .  A
C2710      C2711   1.399       .  A
C2710      H2719   1.083       .  S
C2711      C2712   1.405       .  A
C2711      H2720   1.083       .  S
C2712      C2715   1.480       .  S
C2712      C2713   1.403       .  A
C2713      C2714   1.398       .  A
C2713      H2721   1.083       .  S
C2714      H2722   1.083       .  S
C2715      H2723   1.087       .  S
C2715      C2716   1.345       .  D
C2716      H2724   1.086       .  S
C2717      H2725   1.087       .  S
C2717      C2718   1.343       .  D
C2718      H2726   1.086       .  S
C2727      C2735   1.484       .  S
C2727      C2728   1.401       .  A
C2727      C2732   1.409       .  A
C2728      C2729   1.398       .  A
C2728      H2737   1.083       .  S
C2729      C2730   1.407       .  A
C2729      H2738   1.083       .  S
C2730      C2733   1.482       .  S
C2730      C2731   1.401       .  A
C2731      C2732   1.399       .  A
C2731      H2739   1.083       .  S
C2732      H2740   1.083       .  S
C2733      H2741   1.087       .  S
C2733      C2734   1.343       .  D
C2734      H2742   1.087       .  S
C2735      H2743   1.087       .  S
C2735      C2736   1.342       .  D
C2736      H2744   1.087       .  S
C2745      C2753   1.479       .  S
C2745      C2746   1.403       .  A
C2745      C2750   1.405       .  A
C2746      C2747   1.398       .  A
C2746      H2755   1.083       .  S
C2747      C2748   1.404       .  A
C2747      H2756   1.083       .  S
C2748      C2751   1.477       .  S
C2748      C2749   1.402       .  A
C2749      C2750   1.398       .  A
C2749      H2757   1.083       .  S
C2750      H2758   1.083       .  S
C2751      H2759   1.087       .  S
C2751      C2752   1.344       .  D
C2752      H2760   1.087       .  S
C2753      H2761   1.087       .  S
C2753      C2754   1.345       .  D
C2754      H2762   1.086       .  S
C2763      C2771   1.476       .  S
C2763      C2764   1.401       .  A
C2763      C2768   1.405       .  A
C2764      C2765   1.396       .  A
C2764      H2773   1.083       .  S
C2765      C2766   1.405       .  A
C2765      H2774   1.083       .  S
C2766      C2769   1.477       .  S
C2766      C2767   1.403       .  A
C2767      C2768   1.399       .  A
C2767      H2775   1.083       .  S
C2768      H2776   1.083       .  S
C2769      H2777   1.087       .  S
C2769      C2770   1.342       .  D
C2770      H2778   1.087       .  S
C2771      H2779   1.087       .  S
C2771      C2772   1.342       .  D
C2772      H2780   1.087       .  S
C2781      C2789   1.484       .  S
C2781      C2782   1.403       .  A
C2781      C2786   1.407       .  A
C2782      C2783   1.395   1_655  A
C2782      H2791   1.084       .  S
C2783      C2784   1.406       .  A
C2783      H2792   1.081       .  S
C2784      C2787   1.483       .  S
C2784      C2785   1.403       .  A
C2785      C2786   1.397   1_455  A
C2785      H2793   1.083       .  S
C2786      H2794   1.081       .  S
C2787      H2795   1.087       .  S
C2787      C2788   1.347       .  D
C2788      H2796   1.085       .  S
C2789      H2797   1.087       .  S
C2789      C2790   1.347       .  D
C2790      H2798   1.084       .  S
C2799      C2807   1.483       .  S
C2799      C2800   1.404       .  A
C2799      C2804   1.406       .  A
C2800      C2801   1.394       .  A
C2800      H2809   1.084       .  S
C2801      C2802   1.405       .  A
C2801      H2810   1.081       .  S
C2802      C2805   1.484       .  S
C2802      C2803   1.405       .  A
C2803      C2804   1.399       .  A
C2803      H2811   1.083       .  S
C2804      H2812   1.081       .  S
C2805      H2813   1.087       .  S
C2805      C2806   1.349       .  D
C2806      H2814   1.084       .  S
C2807      H2815   1.087       .  S
C2807      C2808   1.349       .  D
C2808      H2816   1.084       .  S
C2817      C2825   1.489       .  S
C2817      C2818   1.404       .  A
C2817      C2822   1.409       .  A
C2818      C2819   1.398   1_554  A
C2818      H2827   1.084       .  S
C2819      C2820   1.408       .  A
C2819      H2828   1.080       .  S
C2820      C2823   1.487       .  S
C2820      C2821   1.403       .  A
C2821      C2822   1.397   1_556  A
C2821      H2829   1.084       .  S
C2822      H2830   1.079       .  S
C2823      H2831   1.087       .  S
C2823      C2824   1.346       .  D
C2824      H2832   1.083       .  S
C2825      H2833   1.087       .  S
C2825      C2826   1.346       .  D
C2826      H2834   1.082       .  S
C2835      C2843   1.478       .  S
C2835      C2836   1.404       .  A
C2835      C2840   1.403       .  A
C2836      C2837   1.397       .  A
C2836      H2845   1.083       .  S
C2837      C2838   1.402       .  A
C2837      H2846   1.083       .  S
C2838      C2841   1.478       .  S
C2838      C2839   1.405       .  A
C2839      C2840   1.399       .  A
C2839      H2847   1.083       .  S
C2840      H2848   1.083       .  S
C2841      H2849   1.087       .  S
C2841      C2842   1.343       .  D
C2842      H2850   1.087       .  S
C2843      H2851   1.087       .  S
C2843      C2844   1.344       .  D
C2844      H2852   1.086       .  S
C2853      C2861   1.484       .  S
C2853      C2854   1.402       .  A
C2853      C2858   1.408       .  A
C2854      C2855   1.399       .  A
C2854      H2863   1.083       .  S
C2855      C2856   1.407       .  A
C2855      H2864   1.083       .  S
C2856      C2859   1.480       .  S
C2856      C2857   1.400       .  A
C2857      C2858   1.397       .  A
C2857      H2865   1.083       .  S
C2858      H2866   1.083       .  S
C2859      H2867   1.087       .  S
C2859      C2860   1.343       .  D
C2860      H2868   1.087       .  S
C2861      H2869   1.087       .  S
C2861      C2862   1.343       .  D
C2862      H2870   1.087       .  S
C2871      C2879   1.489       .  S
C2871      C2872   1.406       .  A
C2871      C2876   1.405       .  A
C2872      C2873   1.400   1_554  A
C2872      H2881   1.083       .  S
C2873      C2874   1.406       .  A
C2873      H2882   1.081       .  S
C2874      C2877   1.489       .  S
C2874      C2875   1.406       .  A
C2875      C2876   1.398   1_556  A
C2875      H2883   1.084       .  S
C2876      H2884   1.081       .  S
C2877      H2885   1.087       .  S
C2877      C2878   1.352       .  D
C2878      H2886   1.084       .  S
C2879      H2887   1.087       .  S
C2879      C2880   1.351       .  D
C2880      H2888   1.084       .  S
C2889      C2897   1.481       .  S
C2889      C2890   1.400       .  A
C2889      C2894   1.408       .  A
C2890      C2891   1.394       .  A
C2890      H2899   1.084       .  S
C2891      C2892   1.409       .  A
C2891      H2900   1.081       .  S
C2892      C2895   1.488       .  S
C2892      C2893   1.404       .  A
C2893      C2894   1.402       .  A
C2893      H2901   1.083       .  S
C2894      H2902   1.082       .  S
C2895      H2903   1.087       .  S
C2895      C2896   1.345       .  D
C2896      H2904   1.085       .  S
C2897      H2905   1.087       .  S
C2897      C2898   1.344       .  D
C2898      H2906   1.086       .  S
C2907      C2915   1.489       .  S
C2907      C2908   1.405       .  A
C2907      C2912   1.408       .  A
C2908      C2909   1.397       .  A
C2908      H2917   1.083       .  S
C2909      C2910   1.406       .  A
C2909      H2918   1.081       .  S
C2910      C2913   1.487       .  S
C2910      C2911   1.405       .  A
C2911      C2912   1.399       .  A
C2911      H2919   1.083       .  S
C2912      H2920   1.080       .  S
C2913      H2921   1.087       .  S
C2913      C2914   1.350   1_655  D
C2914      H2922   1.084   1_455  S
C2915      H2923   1.087       .  S
C2915      C2916   1.350       .  D
C2916      H2924   1.083       .  S
C2925      C2933   1.484       .  S
C2925      C2926   1.403       .  A
C2925      C2930   1.407       .  A
C2926      C2927   1.394       .  A
C2926      H2935   1.084       .  S
C2927      C2928   1.406       .  A
C2927      H2936   1.080       .  S
C2928      C2931   1.486       .  S
C2928      C2929   1.405       .  A
C2929      C2930   1.399       .  A
C2929      H2937   1.083       .  S
C2930      H2938   1.080       .  S
C2931      H2939   1.087       .  S
C2931      C2932   1.348       .  D
C2932      H2940   1.084       .  S
C2933      H2941   1.087       .  S
C2933      C2934   1.348       .  D
C2934      H2942   1.084       .  S
C2943      C2951   1.487       .  S
C2943      C2944   1.405       .  A
C2943      C2948   1.406       .  A
C2944      C2945   1.402       .  A
C2944      H2953   1.083       .  S
C2945      C2946   1.407       .  A
C2945      H2954   1.082       .  S
C2946      C2949   1.486       .  S
C2946      C2947   1.403       .  A
C2947      C2948   1.397       .  A
C2947      H2955   1.083       .  S
C2948      H2956   1.082       .  S
C2949      H2957   1.087       .  S
C2949      C2950   1.347       .  D
C2950      H2958   1.086       .  S
C2951      H2959   1.087       .  S
C2951      C2952   1.347       .  D
C2952      H2960   1.086       .  S
C2961      C2969   1.480       .  S
C2961      C2962   1.404       .  A
C2961      C2966   1.406       .  A
C2962      C2963   1.398       .  A
C2962      H2971   1.083       .  S
C2963      C2964   1.402       .  A
C2963      H2972   1.083       .  S
C2964      C2967   1.472       .  S
C2964      C2965   1.401       .  A
C2965      C2966   1.398       .  A
C2965      H2973   1.083   1_655  S
C2966      H2974   1.082   1_655  S
C2967      H2975   1.087       .  S
C2967      C2968   1.341       .  D
C2968      H2976   1.087       .  S
C2969      H2977   1.087       .  S
C2969      C2970   1.346       .  D
C2970      H2978   1.086       .  S
C2979      C2987   1.481       .  S
C2979      C2980   1.403       .  A
C2979      C2984   1.405       .  A
C2980      C2981   1.399       .  A
C2980      H2989   1.083       .  S
C2981      C2982   1.405       .  A
C2981      H2990   1.083       .  S
C2982      C2985   1.481       .  S
C2982      C2983   1.404       .  A
C2983      C2984   1.398       .  A
C2983      H2991   1.083       .  S
C2984      H2992   1.083       .  S
C2985      H2993   1.088       .  S
C2985      C2986   1.346       .  D
C2986      H2994   1.086       .  S
C2987      H2995   1.087       .  S
C2987      C2988   1.344       .  D
C2988      H2996   1.086       .  S
C2997      C3005   1.478       .  S
C2997      C2998   1.405       .  A
C2997      C3002   1.402       .  A
C2998      C2999   1.399       .  A
C2998      H3007   1.083       .  S
C2999      C3000   1.403       .  A
C2999      H3008   1.083       .  S
C3000      C3003   1.479       .  S
C3000      C3001   1.405       .  A
C3001      C3002   1.398       .  A
C3001      H3009   1.083       .  S
C3002      H3010   1.083       .  S
C3003      H3011   1.087       .  S
C3003      C3004   1.343       .  D
C3004      H3012   1.086       .  S
C3005      H3013   1.087       .  S
C3005      C3006   1.342       .  D
C3006      H3014   1.087       .  S
C3015      C3023   1.481       .  S
C3015      C3016   1.405       .  A
C3015      C3020   1.404       .  A
C3016      C3017   1.397       .  A
C3016      H3025   1.084       .  S
C3017      C3018   1.405       .  A
C3017      H3026   1.081       .  S
C3018      C3021   1.479       .  S
C3018      C3019   1.403       .  A
C3019      C3020   1.394       .  A
C3019      H3027   1.084       .  S
C3020      H3028   1.081       .  S
C3021      H3029   1.087       .  S
C3021      C3022   1.347       .  D
C3022      H3030   1.085       .  S
C3023      H3031   1.087       .  S
C3023      C3024   1.350       .  D
C3024      H3032   1.084       .  S
C3033      C3041   1.484       .  S
C3033      C3034   1.406       .  A
C3033      C3038   1.405       .  A
C3034      C3035   1.397       .  A
C3034      H3043   1.084       .  S
C3035      C3036   1.405       .  A
C3035      H3044   1.081       .  S
C3036      C3039   1.482       .  S
C3036      C3037   1.404       .  A
C3037      C3038   1.396       .  A
C3037      H3045   1.084       .  S
C3038      H3046   1.080       .  S
C3039      H3047   1.087       .  S
C3039      C3040   1.349       .  D
C3040      H3048   1.084       .  S
C3041      H3049   1.087       .  S
C3041      C3042   1.351       .  D
C3042      H3050   1.084       .  S
C3051      C3059   1.483       .  S
C3051      C3052   1.404       .  A
C3051      C3056   1.405       .  A
C3052      C3053   1.400       .  A
C3052      H3061   1.083       .  S
C3053      C3054   1.405       .  A
C3053      H3062   1.083       .  S
C3054      C3057   1.482       .  S
C3054      C3055   1.404       .  A
C3055      C3056   1.400       .  A
C3055      H3063   1.083       .  S
C3056      H3064   1.083       .  S
C3057      H3065   1.087       .  S
C3057      C3058   1.347       .  D
C3058      H3066   1.086       .  S
C3059      H3067   1.087       .  S
C3059      C3060   1.344       .  D
C3060      H3068   1.086       .  S
C3069      C3077   1.491       .  S
C3069      C3070   1.406       .  A
C3069      C3074   1.407   1_455  A
C3070      C3071   1.399   1_554  A
C3070      H3079   1.084       .  S
C3071      C3072   1.407       .  A
C3071      H3080   1.080       .  S
C3072      C3075   1.492       .  S
C3072      C3073   1.406   1_455  A
C3073      C3074   1.399   1_556  A
C3073      H3081   1.083       .  S
C3074      H3082   1.080       .  S
C3075      H3083   1.087   1_455  S
C3075      C3076   1.351       .  D
C3076      H3084   1.083       .  S
C3077      H3085   1.087       .  S
C3077      C3078   1.352       .  D
C3078      H3086   1.083   1_455  S
C3087      C3095   1.478       .  S
C3087      C3088   1.405       .  A
C3087      C3092   1.402       .  A
C3088      C3089   1.399       .  A
C3088      H3097   1.083   1_655  S
C3089      C3090   1.403       .  A
C3089      H3098   1.083   1_655  S
C3090      C3093   1.478       .  S
C3090      C3091   1.405       .  A
C3091      C3092   1.397       .  A
C3091      H3099   1.083       .  S
C3092      H3100   1.083       .  S
C3093      H3101   1.087       .  S
C3093      C3094   1.344       .  D
C3094      H3102   1.086       .  S
C3095      H3103   1.087       .  S
C3095      C3096   1.343       .  D
C3096      H3104   1.086       .  S
C3105      C3113   1.478       .  S
C3105      C3106   1.403       .  A
C3105      C3110   1.404       .  A
C3106      C3107   1.400       .  A
C3106      H3115   1.083       .  S
C3107      C3108   1.405       .  A
C3107      H3116   1.083       .  S
C3108      C3111   1.477       .  S
C3108      C3109   1.402       .  A
C3109      C3110   1.396       .  A
C3109      H3117   1.083       .  S
C3110      H3118   1.083       .  S
C3111      H3119   1.088       .  S
C3111      C3112   1.344       .  D
C3112      H3120   1.086       .  S
C3113      H3121   1.087       .  S
C3113      C3114   1.343       .  D
C3114      H3122   1.087       .  S
C3123      C3131   1.487       .  S
C3123      C3124   1.402       .  A
C3123      C3128   1.409       .  A
C3124      C3125   1.400       .  A
C3124      H3133   1.083   1_655  S
C3125      C3126   1.408       .  A
C3125      H3134   1.082   1_655  S
C3126      C3129   1.487       .  S
C3126      C3127   1.403       .  A
C3127      C3128   1.401       .  A
C3127      H3135   1.083       .  S
C3128      H3136   1.083       .  S
C3129      H3137   1.087       .  S
C3129      C3130   1.345       .  D
C3130      H3138   1.086   1_655  S
C3131      H3139   1.087       .  S
C3131      C3132   1.343       .  D
C3132      H3140   1.087       .  S
C3141      C3149   1.495       .  S
C3141      C3142   1.406       .  A
C3141      C3146   1.408       .  A
C3142      C3143   1.400   1_554  A
C3142      H3151   1.083       .  S
C3143      C3144   1.408       .  A
C3143      H3152   1.080       .  S
C3144      C3147   1.498       .  S
C3144      C3145   1.408       .  A
C3145      C3146   1.405   1_556  A
C3145      H3153   1.083       .  S
C3146      H3154   1.081       .  S
C3147      H3155   1.087       .  S
C3147      C3148   1.353       .  D
C3148      H3156   1.083       .  S
C3149      H3157   1.087       .  S
C3149      C3150   1.354       .  D
C3150      H3158   1.084       .  S
C3159      C3167   1.488       .  S
C3159      C3160   1.404       .  A
C3159      C3164   1.407       .  A
C3160      C3161   1.402       .  A
C3160      H3169   1.083       .  S
C3161      C3162   1.409       .  A
C3161      H3170   1.081       .  S
C3162      C3165   1.489       .  S
C3162      C3163   1.403       .  A
C3163      C3164   1.397       .  A
C3163      H3171   1.083       .  S
C3164      H3172   1.082       .  S
C3165      H3173   1.087       .  S
C3165      C3166   1.347       .  D
C3166      H3174   1.085       .  S
C3167      H3175   1.087       .  S
C3167      C3168   1.345       .  D
C3168      H3176   1.086       .  S
C3177      C3185   1.483       .  S
C3177      C3178   1.404       .  A
C3177      C3182   1.407       .  A
C3178      C3179   1.396       .  A
C3178      H3187   1.084       .  S
C3179      C3180   1.405       .  A
C3179      H3188   1.081       .  S
C3180      C3183   1.481       .  S
C3180      C3181   1.404       .  A
C3181      C3182   1.397       .  A
C3181      H3189   1.083       .  S
C3182      H3190   1.081       .  S
C3183      H3191   1.087       .  S
C3183      C3184   1.348       .  D
C3184      H3192   1.085       .  S
C3185      H3193   1.087       .  S
C3185      C3186   1.348       .  D
C3186      H3194   1.084       .  S
C3195      C3203   1.482       .  S
C3195      C3196   1.403       .  A
C3195      C3200   1.406       .  A
C3196      C3197   1.394       .  A
C3196      H3205   1.084       .  S
C3197      C3198   1.406       .  A
C3197      H3206   1.080       .  S
C3198      C3201   1.484       .  S
C3198      C3199   1.405       .  A
C3199      C3200   1.397       .  A
C3199      H3207   1.084       .  S
C3200      H3208   1.081       .  S
C3201      H3209   1.087       .  S
C3201      C3202   1.348       .  D
C3202      H3210   1.084       .  S
C3203      H3211   1.087       .  S
C3203      C3204   1.348       .  D
C3204      H3212   1.084       .  S
C3213      C3221   1.480       .  S
C3213      C3214   1.403       .  A
C3213      C3218   1.404       .  A
C3214      C3215   1.399       .  A
C3214      H3223   1.083       .  S
C3215      C3216   1.406       .  A
C3215      H3224   1.082       .  S
C3216      C3219   1.485       .  S
C3216      C3217   1.405       .  A
C3217      C3218   1.400       .  A
C3217      H3225   1.083       .  S
C3218      H3226   1.083       .  S
C3219      H3227   1.087       .  S
C3219      C3220   1.346       .  D
C3220      H3228   1.086       .  S
C3221      H3229   1.087       .  S
C3221      C3222   1.344       .  D
C3222      H3230   1.086       .  S
C3231      C3239   1.485       .  S
C3231      C3232   1.401       .  A
C3231      C3236   1.408       .  A
C3232      C3233   1.400       .  A
C3232      H3241   1.083       .  S
C3233      C3234   1.408       .  A
C3233      H3242   1.083       .  S
C3234      C3237   1.487       .  S
C3234      C3235   1.402       .  A
C3235      C3236   1.400       .  A
C3235      H3243   1.083       .  S
C3236      H3244   1.083       .  S
C3237      H3245   1.087       .  S
C3237      C3238   1.345       .  D
C3238      H3246   1.087       .  S
C3239      H3247   1.087       .  S
C3239      C3240   1.343       .  D
C3240      H3248   1.087       .  S
C3249      C3257   1.488       .  S
C3249      C3250   1.405       .  A
C3249      C3254   1.407       .  A
C3250      C3251   1.399       .  A
C3250      H3259   1.083       .  S
C3251      C3252   1.407       .  A
C3251      H3260   1.081       .  S
C3252      C3255   1.487       .  S
C3252      C3253   1.404       .  A
C3253      C3254   1.397       .  A
C3253      H3261   1.084       .  S
C3254      H3262   1.080       .  S
C3255      H3263   1.087       .  S
C3255      C3256   1.349       .  D
C3256      H3264   1.084       .  S
C3257      H3265   1.087       .  S
C3257      C3258   1.348       .  D
C3258      H3266   1.084       .  S
C3267      C3275   1.488       .  S
C3267      C3268   1.405       .  A
C3267      C3272   1.406       .  A
C3268      C3269   1.399       .  A
C3268      H3277   1.083       .  S
C3269      C3270   1.407       .  A
C3269      H3278   1.081       .  S
C3270      C3273   1.487       .  S
C3270      C3271   1.404       .  A
C3271      C3272   1.397       .  A
C3271      H3279   1.083       .  S
C3272      H3280   1.080       .  S
C3273      H3281   1.087       .  S
C3273      C3274   1.348       .  D
C3274      H3282   1.084       .  S
C3275      H3283   1.087       .  S
C3275      C3276   1.350       .  D
C3276      H3284   1.083       .  S
C3285      C3293   1.487       .  S
C3285      C3286   1.406       .  A
C3285      C3290   1.406       .  A
C3286      C3287   1.399       .  A
C3286      H3295   1.083       .  S
C3287      C3288   1.406       .  A
C3287      H3296   1.080       .  S
C3288      C3291   1.485       .  S
C3288      C3289   1.404       .  A
C3289      C3290   1.395       .  A
C3289      H3297   1.084       .  S
C3290      H3298   1.080       .  S
C3291      H3299   1.087       .  S
C3291      C3292   1.349       .  D
C3292      H3300   1.084       .  S
C3293      H3301   1.087       .  S
C3293      C3294   1.349       .  D
C3294      H3302   1.083       .  S
C3303      C3311   1.487       .  S
C3303      C3304   1.404       .  A
C3303      C3308   1.407       .  A
C3304      C3305   1.397       .  A
C3304      H3313   1.084       .  S
C3305      C3306   1.407   1_455  A
C3305      H3314   1.080   1_455  S
C3306      C3309   1.486       .  S
C3306      C3307   1.404   1_655  A
C3307      C3308   1.397       .  A
C3307      H3315   1.083       .  S
C3308      H3316   1.080       .  S
C3309      H3317   1.087       .  S
C3309      C3310   1.347       .  D
C3310      H3318   1.083       .  S
C3311      H3319   1.087       .  S
C3311      C3312   1.348       .  D
C3312      H3320   1.083       .  S
C3321      C3329   1.480       .  S
C3321      C3322   1.402       .  A
C3321      C3326   1.406       .  A
C3322      C3323   1.397       .  A
C3322      H3331   1.083       .  S
C3323      C3324   1.405       .  A
C3323      H3332   1.083       .  S
C3324      C3327   1.480       .  S
C3324      C3325   1.403       .  A
C3325      C3326   1.398       .  A
C3325      H3333   1.083       .  S
C3326      H3334   1.082       .  S
C3327      H3335   1.087       .  S
C3327      C3328   1.345       .  D
C3328      H3336   1.086       .  S
C3329      H3337   1.087       .  S
C3329      C3330   1.345       .  D
C3330      H3338   1.086       .  S
C3339      C3347   1.485       .  S
C3339      C3340   1.404       .  A
C3339      C3344   1.407       .  A
C3340      C3341   1.396       .  A
C3340      H3349   1.083       .  S
C3341      C3342   1.406       .  A
C3341      H3350   1.080       .  S
C3342      C3345   1.483       .  S
C3342      C3343   1.404       .  A
C3343      C3344   1.396       .  A
C3343      H3351   1.084       .  S
C3344      H3352   1.080       .  S
C3345      H3353   1.087       .  S
C3345      C3346   1.348       .  D
C3346      H3354   1.084       .  S
C3347      H3355   1.087       .  S
C3347      C3348   1.347       .  D
C3348      H3356   1.083       .  S
C3357      C3365   1.481       .  S
C3357      C3358   1.402       .  A
C3357      C3362   1.407       .  A
C3358      C3359   1.395       .  A
C3358      H3367   1.083       .  S
C3359      C3360   1.406       .  A
C3359      H3368   1.081       .  S
C3360      C3363   1.481       .  S
C3360      C3361   1.403       .  A
C3361      C3362   1.397       .  A
C3361      H3369   1.084       .  S
C3362      H3370   1.081       .  S
C3363      H3371   1.087       .  S
C3363      C3364   1.346   1_455  D
C3364      H3372   1.085   1_655  S
C3365      H3373   1.087       .  S
C3365      C3366   1.345       .  D
C3366      H3374   1.085       .  S
C3375      C3383   1.481       .  S
C3375      C3376   1.402       .  A
C3375      C3380   1.407       .  A
C3376      C3377   1.397       .  A
C3376      H3385   1.083       .  S
C3377      C3378   1.406       .  A
C3377      H3386   1.082       .  S
C3378      C3381   1.479       .  S
C3378      C3379   1.402       .  A
C3379      C3380   1.396       .  A
C3379      H3387   1.083       .  S
C3380      H3388   1.082       .  S
C3381      H3389   1.087       .  S
C3381      C3382   1.344       .  D
C3382      H3390   1.086       .  S
C3383      H3391   1.087       .  S
C3383      C3384   1.343       .  D
C3384      H3392   1.086       .  S
C3393      C3401   1.491       .  S
C3393      C3394   1.406       .  A
C3393      C3398   1.407   1_565  A
C3394      C3395   1.399       .  A
C3394      H3403   1.083       .  S
C3395      C3396   1.407   1_565  A
C3395      H3404   1.080       .  S
C3396      C3399   1.490       .  S
C3396      C3397   1.406       .  A
C3397      C3398   1.398       .  A
C3397      H3405   1.084       .  S
C3398      H3406   1.080       .  S
C3399      H3407   1.087       .  S
C3399      C3400   1.352   1_545  D
C3400      H3408   1.083       .  S
C3401      H3409   1.087       .  S
C3401      C3402   1.350   1_565  D
C3402      H3410   1.083       .  S
C3411      C3419   1.488       .  S
C3411      C3412   1.406       .  A
C3411      C3416   1.405       .  A
C3412      C3413   1.402       .  A
C3412      H3421   1.083       .  S
C3413      C3414   1.405       .  A
C3413      H3422   1.083       .  S
C3414      C3417   1.486       .  S
C3414      C3415   1.405       .  A
C3415      C3416   1.401       .  A
C3415      H3423   1.083       .  S
C3416      H3424   1.083       .  S
C3417      H3425   1.087       .  S
C3417      C3418   1.349       .  D
C3418      H3426   1.086       .  S
C3419      H3427   1.087       .  S
C3419      C3420   1.348       .  D
C3420      H3428   1.086       .  S
C3429      C3437   1.485       .  S
C3429      C3430   1.404       .  A
C3429      C3434   1.406   1_565  A
C3430      C3431   1.397       .  A
C3430      H3439   1.083       .  S
C3431      C3432   1.406       .  A
C3431      H3440   1.081       .  S
C3432      C3435   1.485   1_565  S
C3432      C3433   1.405   1_565  A
C3433      C3434   1.397       .  A
C3433      H3441   1.084       .  S
C3434      H3442   1.081       .  S
C3435      H3443   1.087       .  S
C3435      C3436   1.349   1_545  D
C3436      H3444   1.084       .  S
C3437      H3445   1.087       .  S
C3437      C3438   1.348   1_565  D
C3438      H3446   1.084       .  S
C3447      C3455   1.487       .  S
C3447      C3448   1.406       .  A
C3447      C3452   1.407       .  A
C3448      C3449   1.398       .  A
C3448      H3457   1.083       .  S
C3449      C3450   1.405       .  A
C3449      H3458   1.081       .  S
C3450      C3453   1.483       .  S
C3450      C3451   1.403       .  A
C3451      C3452   1.396       .  A
C3451      H3459   1.084       .  S
C3452      H3460   1.079       .  S
C3453      H3461   1.087       .  S
C3453      C3454   1.349   1_545  D
C3454      H3462   1.084       .  S
C3455      H3463   1.087       .  S
C3455      C3456   1.350   1_545  D
C3456      H3464   1.082       .  S
C3465      C3473   1.480       .  S
C3465      C3466   1.403       .  A
C3465      C3470   1.406       .  A
C3466      C3467   1.396       .  A
C3466      H3475   1.084       .  S
C3467      C3468   1.406       .  A
C3467      H3476   1.081       .  S
C3468      C3471   1.480       .  S
C3468      C3469   1.403       .  A
C3469      C3470   1.395       .  A
C3469      H3477   1.084   1_565  S
C3470      H3478   1.081   1_565  S
C3471      H3479   1.087       .  S
C3471      C3472   1.348       .  D
C3472      H3480   1.085       .  S
C3473      H3481   1.087       .  S
C3473      C3474   1.346       .  D
C3474      H3482   1.085       .  S
C3483      C3491   1.488       .  S
C3483      C3484   1.406       .  A
C3483      C3488   1.405       .  A
C3484      C3485   1.403       .  A
C3484      H3493   1.083       .  S
C3485      C3486   1.406       .  A
C3485      H3494   1.083       .  S
C3486      C3489   1.488       .  S
C3486      C3487   1.405       .  A
C3487      C3488   1.401       .  A
C3487      H3495   1.083       .  S
C3488      H3496   1.083       .  S
C3489      H3497   1.087       .  S
C3489      C3490   1.348       .  D
C3490      H3498   1.086       .  S
C3491      H3499   1.087       .  S
C3491      C3492   1.349       .  D
C3492      H3500   1.086       .  S
C3501      C3509   1.483       .  S
C3501      C3502   1.405       .  A
C3501      C3506   1.404       .  A
C3502      C3503   1.400       .  A
C3502      H3511   1.083       .  S
C3503      C3504   1.404       .  A
C3503      H3512   1.083       .  S
C3504      C3507   1.482       .  S
C3504      C3505   1.404       .  A
C3505      C3506   1.400       .  A
C3505      H3513   1.083       .  S
C3506      H3514   1.083       .  S
C3507      H3515   1.087       .  S
C3507      C3508   1.346       .  D
C3508      H3516   1.086       .  S
C3509      H3517   1.088       .  S
C3509      C3510   1.348       .  D
C3510      H3518   1.086       .  S
C3519      C3527   1.486       .  S
C3519      C3520   1.403       .  A
C3519      C3524   1.407       .  A
C3520      C3521   1.400       .  A
C3520      H3529   1.083       .  S
C3521      C3522   1.407       .  A
C3521      H3530   1.082       .  S
C3522      C3525   1.487       .  S
C3522      C3523   1.404       .  A
C3523      C3524   1.399       .  A
C3523      H3531   1.083       .  S
C3524      H3532   1.082       .  S
C3525      H3533   1.087       .  S
C3525      C3526   1.347       .  D
C3526      H3534   1.085   1_565  S
C3527      H3535   1.087       .  S
C3527      C3528   1.346       .  D
C3528      H3536   1.086       .  S
C3537      C3545   1.485       .  S
C3537      C3538   1.403       .  A
C3537      C3542   1.406       .  A
C3538      C3539   1.397       .  A
C3538      H3547   1.084       .  S
C3539      C3540   1.408       .  A
C3539      H3548   1.079       .  S
C3540      C3543   1.487       .  S
C3540      C3541   1.405       .  A
C3541      C3542   1.397       .  A
C3541      H3549   1.084       .  S
C3542      H3550   1.081       .  S
C3543      H3551   1.087       .  S
C3543      C3544   1.349       .  D
C3544      H3552   1.082       .  S
C3545      H3553   1.087       .  S
C3545      C3546   1.347   1_545  D
C3546      H3554   1.084       .  S
C3555      C3563   1.486   1_545  S
C3555      C3556   1.404   1_545  A
C3555      C3560   1.407       .  A
C3556      C3557   1.396   1_565  A
C3556      H3565   1.084       .  S
C3557      C3558   1.406       .  A
C3557      H3566   1.080   1_545  S
C3558      C3561   1.484       .  S
C3558      C3559   1.403       .  A
C3559      C3560   1.396       .  A
C3559      H3567   1.084       .  S
C3560      H3568   1.079       .  S
C3561      H3569   1.087       .  S
C3561      C3562   1.347       .  D
C3562      H3570   1.083   1_545  S
C3563      H3571   1.087       .  S
C3563      C3564   1.348       .  D
C3564      H3572   1.083   1_565  S
C3573      C3581   1.483       .  S
C3573      C3574   1.404       .  A
C3573      C3578   1.405       .  A
C3574      C3575   1.399       .  A
C3574      H3583   1.083       .  S
C3575      C3576   1.404       .  A
C3575      H3584   1.083   1_655  S
C3576      C3579   1.483       .  S
C3576      C3577   1.405       .  A
C3577      C3578   1.400       .  A
C3577      H3585   1.083       .  S
C3578      H3586   1.083       .  S
C3579      H3587   1.087       .  S
C3579      C3580   1.347       .  D
C3580      H3588   1.086       .  S
C3581      H3589   1.088       .  S
C3581      C3582   1.347       .  D
C3582      H3590   1.086       .  S
C3591      C3599   1.480       .  S
C3591      C3592   1.402       .  A
C3591      C3596   1.405       .  A
C3592      C3593   1.398       .  A
C3592      H3601   1.083       .  S
C3593      C3594   1.408       .  A
C3593      H3602   1.082       .  S
C3594      C3597   1.483       .  S
C3594      C3595   1.402       .  A
C3595      C3596   1.397       .  A
C3595      H3603   1.083       .  S
C3596      H3604   1.083       .  S
C3597      H3605   1.087       .  S
C3597      C3598   1.344       .  D
C3598      H3606   1.086   1_565  S
C3599      H3607   1.087       .  S
C3599      C3600   1.345       .  D
C3600      H3608   1.086       .  S
C3609      C3617   1.487       .  S
C3609      C3610   1.409       .  A
C3609      C3614   1.401       .  A
C3610      C3611   1.403       .  A
C3610      H3619   1.081       .  S
C3611      C3612   1.409       .  A
C3611      H3620   1.080       .  S
C3612      C3615   1.489       .  S
C3612      C3613   1.404       .  A
C3613      C3614   1.394       .  A
C3613      H3621   1.084       .  S
C3614      H3622   1.084       .  S
C3615      H3623   1.087       .  S
C3615      C3616   1.350       .  D
C3616      H3624   1.083       .  S
C3617      H3625   1.087       .  S
C3617      C3618   1.347       .  D
C3618      H3626   1.084       .  S
C3627      C3635   1.487       .  S
C3627      C3628   1.410       .  A
C3627      C3632   1.402       .  A
C3628      C3629   1.403       .  A
C3628      H3637   1.080       .  S
C3629      C3630   1.409       .  A
C3629      H3638   1.081       .  S
C3630      C3633   1.486       .  S
C3630      C3631   1.401       .  A
C3631      C3632   1.391       .  A
C3631      H3639   1.084       .  S
C3632      H3640   1.084       .  S
C3633      H3641   1.087       .  S
C3633      C3634   1.347       .  D
C3634      H3642   1.084       .  S
C3635      H3643   1.087       .  S
C3635      C3636   1.346       .  D
C3636      H3644   1.083       .  S
C3645      C3653   1.483       .  S
C3645      C3646   1.404       .  A
C3645      C3650   1.405       .  A
C3646      C3647   1.396       .  A
C3646      H3655   1.084       .  S
C3647      C3648   1.407       .  A
C3647      H3656   1.079       .  S
C3648      C3651   1.486       .  S
C3648      C3649   1.405       .  A
C3649      C3650   1.397       .  A
C3649      H3657   1.084       .  S
C3650      H3658   1.081       .  S
C3651      H3659   1.087       .  S
C3651      C3652   1.349       .  D
C3652      H3660   1.082       .  S
C3653      H3661   1.087       .  S
C3653      C3654   1.349       .  D
C3654      H3662   1.084       .  S
C3663      C3671   1.485       .  S
C3663      C3664   1.404       .  A
C3663      C3668   1.406       .  A
C3664      C3665   1.399       .  A
C3664      H3673   1.083       .  S
C3665      C3666   1.408       .  A
C3665      H3674   1.080       .  S
C3666      C3669   1.486       .  S
C3666      C3667   1.404       .  A
C3667      C3668   1.396       .  A
C3667      H3675   1.084       .  S
C3668      H3676   1.081       .  S
C3669      H3677   1.087       .  S
C3669      C3670   1.348       .  D
C3670      H3678   1.084       .  S
C3671      H3679   1.087       .  S
C3671      C3672   1.348       .  D
C3672      H3680   1.084       .  S
C3681      C3689   1.486       .  S
C3681      C3682   1.404       .  A
C3681      C3686   1.406       .  A
C3682      C3683   1.399       .  A
C3682      H3691   1.083       .  S
C3683      C3684   1.407       .  A
C3683      H3692   1.081       .  S
C3684      C3687   1.487       .  S
C3684      C3685   1.405       .  A
C3685      C3686   1.397       .  A
C3685      H3693   1.083       .  S
C3686      H3694   1.081       .  S
C3687      H3695   1.087       .  S
C3687      C3688   1.349       .  D
C3688      H3696   1.084       .  S
C3689      H3697   1.087       .  S
C3689      C3690   1.348       .  D
C3690      H3698   1.085       .  S
C3699      C3707   1.494       .  S
C3699      C3700   1.410       .  A
C3699      C3704   1.404       .  A
C3700      C3701   1.405       .  A
C3700      H3709   1.080       .  S
C3701      C3702   1.410       .  A
C3701      H3710   1.080       .  S
C3702      C3705   1.496       .  S
C3702      C3703   1.405       .  A
C3703      C3704   1.397       .  A
C3703      H3711   1.084       .  S
C3704      H3712   1.084       .  S
C3705      H3713   1.087       .  S
C3705      C3706   1.351       .  D
C3706      H3714   1.083       .  S
C3707      H3715   1.087       .  S
C3707      C3708   1.350       .  D
C3708      H3716   1.084       .  S
C3717      C3725   1.487       .  S
C3717      C3718   1.404       .  A
C3717      C3722   1.407       .  A
C3718      C3719   1.400       .  A
C3718      H3727   1.083       .  S
C3719      C3720   1.407       .  A
C3719      H3728   1.082       .  S
C3720      C3723   1.488       .  S
C3720      C3721   1.404       .  A
C3721      C3722   1.399       .  A
C3721      H3729   1.083       .  S
C3722      H3730   1.082       .  S
C3723      H3731   1.087       .  S
C3723      C3724   1.347       .  D
C3724      H3732   1.085       .  S
C3725      H3733   1.087       .  S
C3725      C3726   1.346       .  D
C3726      H3734   1.085       .  S
C3735      C3743   1.483       .  S
C3735      C3736   1.402   1_455  A
C3735      C3740   1.407       .  A
C3736      C3737   1.396   1_655  A
C3736      H3745   1.084       .  S
C3737      C3738   1.407       .  A
C3737      H3746   1.080   1_455  S
C3738      C3741   1.484       .  S
C3738      C3739   1.404       .  A
C3739      C3740   1.397       .  A
C3739      H3747   1.084       .  S
C3740      H3748   1.081       .  S
C3741      H3749   1.087       .  S
C3741      C3742   1.347       .  D
C3742      H3750   1.083   1_455  S
C3743      H3751   1.087   1_455  S
C3743      C3744   1.346       .  D
C3744      H3752   1.084       .  S
C3753      C3761   1.489       .  S
C3753      C3754   1.402       .  A
C3753      C3758   1.410       .  A
C3754      C3755   1.394       .  A
C3754      H3763   1.084       .  S
C3755      C3756   1.403       .  A
C3755      H3764   1.084       .  S
C3756      C3759   1.489       .  S
C3756      C3757   1.409       .  A
C3757      C3758   1.404       .  A
C3757      H3765   1.081       .  S
C3758      H3766   1.081       .  S
C3759      H3767   1.087       .  S
C3759      C3760   1.350       .  D
C3760      H3768   1.084       .  S
C3761      H3769   1.087       .  S
C3761      C3762   1.348       .  D
C3762      H3770   1.084       .  S
C3771      C3779   1.486       .  S
C3771      C3772   1.405       .  A
C3771      C3776   1.407       .  A
C3772      C3773   1.397       .  A
C3772      H3781   1.084       .  S
C3773      C3774   1.406       .  A
C3773      H3782   1.081       .  S
C3774      C3777   1.483       .  S
C3774      C3775   1.403       .  A
C3775      C3776   1.397       .  A
C3775      H3783   1.084       .  S
C3776      H3784   1.080       .  S
C3777      H3785   1.087       .  S
C3777      C3778   1.347       .  D
C3778      H3786   1.084       .  S
C3779      H3787   1.087       .  S
C3779      C3780   1.348       .  D
C3780      H3788   1.083       .  S
C3789      C3797   1.486       .  S
C3789      C3790   1.405       .  A
C3789      C3794   1.408       .  A
C3790      C3791   1.397       .  A
C3790      H3799   1.084       .  S
C3791      C3792   1.406       .  A
C3791      H3800   1.081       .  S
C3792      C3795   1.482       .  S
C3792      C3793   1.402       .  A
C3793      C3794   1.396       .  A
C3793      H3801   1.084       .  S
C3794      H3802   1.079       .  S
C3795      H3803   1.087       .  S
C3795      C3796   1.347       .  D
C3796      H3804   1.085       .  S
C3797      H3805   1.087       .  S
C3797      C3798   1.348       .  D
C3798      H3806   1.083       .  S
C3807      C3815   1.478       .  S
C3807      C3808   1.401       .  A
C3807      C3812   1.406       .  A
C3808      C3809   1.396       .  A
C3808      H3817   1.083       .  S
C3809      C3810   1.407       .  A
C3809      H3818   1.082       .  S
C3810      C3813   1.480       .  S
C3810      C3811   1.403       .  A
C3811      C3812   1.396       .  A
C3811      H3819   1.084       .  S
C3812      H3820   1.082       .  S
C3813      H3821   1.087       .  S
C3813      C3814   1.344       .  D
C3814      H3822   1.085       .  S
C3815      H3823   1.087       .  S
C3815      C3816   1.342       .  D
C3816      H3824   1.086       .  S
C3825      C3833   1.490       .  S
C3825      C3826   1.406       .  A
C3825      C3830   1.407       .  A
C3826      C3827   1.399       .  A
C3826      H3835   1.083       .  S
C3827      C3828   1.406       .  A
C3827      H3836   1.080       .  S
C3828      C3831   1.488       .  S
C3828      C3829   1.405       .  A
C3829      C3830   1.397       .  A
C3829      H3837   1.084       .  S
C3830      H3838   1.079       .  S
C3831      H3839   1.087       .  S
C3831      C3832   1.351       .  D
C3832      H3840   1.083       .  S
C3833      H3841   1.087       .  S
C3833      C3834   1.350       .  D
C3834      H3842   1.083       .  S
C3843      C3851   1.491       .  S
C3843      C3844   1.402       .  A
C3843      C3848   1.410       .  A
C3844      C3845   1.396       .  A
C3844      H3853   1.084       .  S
C3845      C3846   1.404       .  A
C3845      H3854   1.084       .  S
C3846      C3849   1.492       .  S
C3846      C3847   1.409       .  A
C3847      C3848   1.407       .  A
C3847      H3855   1.081       .  S
C3848      H3856   1.082       .  S
C3849      H3857   1.087       .  S
C3849      C3850   1.352       .  D
C3850      H3858   1.084       .  S
C3851      H3859   1.087       .  S
C3851      C3852   1.348       .  D
C3852      H3860   1.085       .  S
C3861      C3869   1.485       .  S
C3861      C3862   1.405       .  A
C3861      C3866   1.405       .  A
C3862      C3863   1.401       .  A
C3862      H3871   1.083       .  S
C3863      C3864   1.404       .  A
C3863      H3872   1.083       .  S
C3864      C3867   1.484       .  S
C3864      C3865   1.404       .  A
C3865      C3866   1.401       .  A
C3865      H3873   1.083   1_655  S
C3866      H3874   1.083   1_655  S
C3867      H3875   1.087       .  S
C3867      C3868   1.345       .  D
C3868      H3876   1.086       .  S
C3869      H3877   1.087       .  S
C3869      C3870   1.348       .  D
C3870      H3878   1.086   1_655  S
C3879      C3887   1.490       .  S
C3879      C3880   1.407       .  A
C3879      C3884   1.406       .  A
C3880      C3881   1.400       .  A
C3880      H3889   1.083       .  S
C3881      C3882   1.406       .  A
C3881      H3890   1.081       .  S
C3882      C3885   1.489       .  S
C3882      C3883   1.406       .  A
C3883      C3884   1.398       .  A
C3883      H3891   1.084       .  S
C3884      H3892   1.080       .  S
C3885      H3893   1.087       .  S
C3885      C3886   1.351       .  D
C3886      H3894   1.084       .  S
C3887      H3895   1.087       .  S
C3887      C3888   1.351       .  D
C3888      H3896   1.084       .  S
C3897      C3905   1.491       .  S
C3897      C3898   1.403       .  A
C3897      C3902   1.409       .  A
C3898      C3899   1.393       .  A
C3898      H3907   1.084       .  S
C3899      C3900   1.402       .  A
C3899      H3908   1.084       .  S
C3900      C3903   1.495       .  S
C3900      C3901   1.412       .  A
C3901      C3902   1.409       .  A
C3901      H3909   1.080       .  S
C3902      H3910   1.081       .  S
C3903      H3911   1.087       .  S
C3903      C3904   1.349       .  D
C3904      H3912   1.084       .  S
C3905      H3913   1.087       .  S
C3905      C3906   1.351       .  D
C3906      H3914   1.084       .  S
C3915      C3923   1.504       .  S
C3915      C3916   1.405       .  A
C3915      C3920   1.410       .  A
C3916      C3917   1.406       .  A
C3916      H3925   1.083       .  S
C3917      C3918   1.413       .  A
C3917      H3926   1.080       .  S
C3918      C3921   1.507       .  S
C3918      C3919   1.406       .  A
C3919      C3920   1.405       .  A
C3919      H3927   1.083       .  S
C3920      H3928   1.082       .  S
C3921      H3929   1.087       .  S
C3921      C3922   1.349       .  D
C3922      H3930   1.084       .  S
C3923      H3931   1.087       .  S
C3923      C3924   1.349       .  D
C3924      H3932   1.085       .  S
C3933      C3941   1.507       .  S
C3933      C3934   1.406       .  A
C3933      C3938   1.412       .  A
C3934      C3935   1.406       .  A
C3934      H3943   1.083       .  S
C3935      C3936   1.411       .  A
C3935      H3944   1.082       .  S
C3936      C3939   1.503       .  S
C3936      C3937   1.405       .  A
C3937      C3938   1.405       .  A
C3937      H3945   1.083       .  S
C3938      H3946   1.081       .  S
C3939      H3947   1.087       .  S
C3939      C3940   1.349       .  D
C3940      H3948   1.086       .  S
C3941      H3949   1.087       .  S
C3941      C3942   1.349       .  D
C3942      H3950   1.084       .  S
C3951      C3959   1.486       .  S
C3951      C3952   1.405       .  A
C3951      C3956   1.406       .  A
C3952      C3953   1.401       .  A
C3952      H3961   1.083       .  S
C3953      C3954   1.405       .  A
C3953      H3962   1.083       .  S
C3954      C3957   1.486       .  S
C3954      C3955   1.405       .  A
C3955      C3956   1.402       .  A
C3955      H3963   1.083       .  S
C3956      H3964   1.083       .  S
C3957      H3965   1.087       .  S
C3957      C3958   1.347       .  D
C3958      H3966   1.086       .  S
C3959      H3967   1.087       .  S
C3959      C3960   1.348       .  D
C3960      H3968   1.086       .  S
C3969      C3977   1.482       .  S
C3969      C3970   1.404       .  A
C3969      C3974   1.404       .  A
C3970      C3971   1.401       .  A
C3970      H3979   1.083       .  S
C3971      C3972   1.406       .  A
C3971      H3980   1.083       .  S
C3972      C3975   1.483       .  S
C3972      C3973   1.404       .  A
C3973      C3974   1.399       .  A
C3973      H3981   1.083       .  S
C3974      H3982   1.083       .  S
C3975      H3983   1.087       .  S
C3975      C3976   1.346       .  D
C3976      H3984   1.086       .  S
C3977      H3985   1.087       .  S
C3977      C3978   1.345       .  D
C3978      H3986   1.086       .  S
C3987      C3995   1.489       .  S
C3987      C3988   1.406       .  A
C3987      C3992   1.406       .  A
C3988      C3989   1.402       .  A
C3988      H3997   1.083       .  S
C3989      C3990   1.405       .  A
C3989      H3998   1.083       .  S
C3990      C3993   1.486       .  S
C3990      C3991   1.404       .  A
C3991      C3992   1.402       .  A
C3991      H3999   1.083       .  S
C3992      H4000   1.083       .  S
C3993      H4001   1.087       .  S
C3993      C3994   1.348       .  D
C3994      H4002   1.086       .  S
C3995      H4003   1.087       .  S
C3995      C3996   1.349       .  D
C3996      H4004   1.086       .  S
C4005      C4013   1.487       .  S
C4005      C4006   1.402       .  A
C4005      C4010   1.408       .  A
C4006      C4007   1.402       .  A
C4006      H4015   1.083       .  S
C4007      C4008   1.409       .  A
C4007      H4016   1.082       .  S
C4008      C4011   1.490       .  S
C4008      C4009   1.403       .  A
C4009      C4010   1.401       .  A
C4009      H4017   1.083       .  S
C4010      H4018   1.083       .  S
C4011      H4019   1.087       .  S
C4011      C4012   1.345       .  D
C4012      H4020   1.086       .  S
C4013      H4021   1.086       .  S
C4013      C4014   1.344       .  D
C4014      H4022   1.087       .  S
C4023      C4031   1.482       .  S
C4023      C4024   1.404       .  A
C4023      C4028   1.405       .  A
C4024      C4025   1.401       .  A
C4024      H4033   1.083       .  S
C4025      C4026   1.405       .  A
C4025      H4034   1.083       .  S
C4026      C4029   1.479       .  S
C4026      C4027   1.402       .  A
C4027      C4028   1.398       .  A
C4027      H4035   1.083       .  S
C4028      H4036   1.083       .  S
C4029      H4037   1.087       .  S
C4029      C4030   1.343       .  D
C4030      H4038   1.087       .  S
C4031      H4039   1.087       .  S
C4031      C4032   1.345       .  D
C4032      H4040   1.086       .  S
C4041      C4049   1.483       .  S
C4041      C4042   1.405       .  A
C4041      C4046   1.405       .  A
C4042      C4043   1.398       .  A
C4042      H4051   1.083       .  S
C4043      C4044   1.406       .  A
C4043      H4052   1.081       .  S
C4044      C4047   1.482       .  S
C4044      C4045   1.404       .  A
C4045      C4046   1.394       .  A
C4045      H4053   1.084       .  S
C4046      H4054   1.081       .  S
C4047      H4055   1.087       .  S
C4047      C4048   1.349       .  D
C4048      H4056   1.084       .  S
C4049      H4057   1.087       .  S
C4049      C4050   1.349       .  D
C4050      H4058   1.084       .  S
C4059      C4067   1.480       .  S
C4059      C4060   1.404       .  A
C4059      C4064   1.404       .  A
C4060      C4061   1.394   1_655  A
C4060      H4069   1.084       .  S
C4061      C4062   1.405       .  A
C4061      H4070   1.080       .  S
C4062      C4065   1.483       .  S
C4062      C4063   1.406       .  A
C4063      C4064   1.397   1_455  A
C4063      H4071   1.084       .  S
C4064      H4072   1.081       .  S
C4065      H4073   1.087       .  S
C4065      C4066   1.350       .  D
C4066      H4074   1.083       .  S
C4067      H4075   1.087       .  S
C4067      C4068   1.349       .  D
C4068      H4076   1.084       .  S
C4077      C4085   1.479       .  S
C4077      C4078   1.405       .  A
C4077      C4082   1.403       .  A
C4078      C4079   1.397       .  A
C4078      H4087   1.083       .  S
C4079      C4080   1.402       .  A
C4079      H4088   1.083       .  S
C4080      C4083   1.477       .  S
C4080      C4081   1.405       .  A
C4081      C4082   1.397       .  A
C4081      H4089   1.083       .  S
C4082      H4090   1.083       .  S
C4083      H4091   1.088       .  S
C4083      C4084   1.343       .  D
C4084      H4092   1.086       .  S
C4085      H4093   1.087       .  S
C4085      C4086   1.342       .  D
C4086      H4094   1.086       .  S
C4095      C4103   1.487       .  S
C4095      C4096   1.402       .  A
C4095      C4100   1.409       .  A
C4096      C4097   1.401       .  A
C4096      H4105   1.083       .  S
C4097      C4098   1.408       .  A
C4097      H4106   1.083       .  S
C4098      C4101   1.486       .  S
C4098      C4099   1.401       .  A
C4099      C4100   1.399       .  A
C4099      H4107   1.083       .  S
C4100      H4108   1.083       .  S
C4101      H4109   1.087       .  S
C4101      C4102   1.343       .  D
C4102      H4110   1.087       .  S
C4103      H4111   1.086       .  S
C4103      C4104   1.344       .  D
C4104      H4112   1.087       .  S
C4113      C4121   1.486       .  S
C4113      C4114   1.406       .  A
C4113      C4118   1.406   1_445  A
C4114      C4115   1.397       .  A
C4114      H4123   1.083       .  S
C4115      C4116   1.405       .  A
C4115      H4124   1.081       .  S
C4116      C4119   1.484   1_455  S
C4116      C4117   1.405   1_445  A
C4117      C4118   1.398       .  A
C4117      H4125   1.084       .  S
C4118      H4126   1.081       .  S
C4119      H4127   1.087   1_545  S
C4119      C4120   1.350   1_655  D
C4120      H4128   1.084       .  S
C4121      H4129   1.087       .  S
C4121      C4122   1.351   1_545  D
C4122      H4130   1.084   1_455  S
C4131      C4139   1.492       .  S
C4131      C4132   1.407       .  A
C4131      C4136   1.406   1_545  A
C4132      C4133   1.399       .  A
C4132      H4141   1.083       .  S
C4133      C4134   1.406       .  A
C4133      H4142   1.080       .  S
C4134      C4137   1.491       .  S
C4134      C4135   1.407   1_545  A
C4135      C4136   1.399       .  A
C4135      H4143   1.084       .  S
C4136      H4144   1.080       .  S
C4137      H4145   1.087   1_545  S
C4137      C4138   1.353       .  D
C4138      H4146   1.083       .  S
C4139      H4147   1.087       .  S
C4139      C4140   1.352   1_545  D
C4140      H4148   1.083       .  S
C4149      C4157   1.484       .  S
C4149      C4150   1.403   1_545  A
C4149      C4154   1.407       .  A
C4150      C4151   1.396       .  A
C4150      H4159   1.084       .  S
C4151      C4152   1.406   1_565  A
C4151      H4160   1.082       .  S
C4152      C4155   1.483       .  S
C4152      C4153   1.403       .  A
C4153      C4154   1.399       .  A
C4153      H4161   1.083       .  S
C4154      H4162   1.081       .  S
C4155      H4163   1.087   1_545  S
C4155      C4156   1.347       .  D
C4156      H4164   1.086       .  S
C4157      H4165   1.087       .  S
C4157      C4158   1.348       .  D
C4158      H4166   1.085       .  S
C4167      C4175   1.480       .  S
C4167      C4168   1.403       .  A
C4167      C4172   1.406   1_545  A
C4168      C4169   1.394       .  A
C4168      H4177   1.084       .  S
C4169      C4170   1.405       .  A
C4169      H4178   1.081       .  S
C4170      C4173   1.483       .  S
C4170      C4171   1.405   1_545  A
C4171      C4172   1.400       .  A
C4171      H4179   1.083       .  S
C4172      H4180   1.082       .  S
C4173      H4181   1.087       .  S
C4173      C4174   1.349       .  D
C4174      H4182   1.085       .  S
C4175      H4183   1.087       .  S
C4175      C4176   1.348       .  D
C4176      H4184   1.085       .  S
C4185      C4193   1.487       .  S
C4185      C4186   1.405   1_565  A
C4185      C4190   1.407       .  A
C4186      C4187   1.397       .  A
C4186      H4195   1.083       .  S
C4187      C4188   1.406   1_545  A
C4187      H4196   1.080       .  S
C4188      C4191   1.485       .  S
C4188      C4189   1.405       .  A
C4189      C4190   1.396       .  A
C4189      H4197   1.084       .  S
C4190      H4198   1.079       .  S
C4191      H4199   1.087       .  S
C4191      C4192   1.350       .  D
C4192      H4200   1.083   1_565  S
C4193      H4201   1.087   1_565  S
C4193      C4194   1.348       .  D
C4194      H4202   1.082       .  S
C4203      C4211   1.474       .  S
C4203      C4204   1.400       .  A
C4203      C4208   1.405       .  A
C4204      C4205   1.394       .  A
C4204      H4213   1.084       .  S
C4205      C4206   1.406       .  A
C4205      H4214   1.082       .  S
C4206      C4209   1.478       .  S
C4206      C4207   1.402       .  A
C4207      C4208   1.397       .  A
C4207      H4215   1.083       .  S
C4208      H4216   1.083       .  S
C4209      H4217   1.087       .  S
C4209      C4210   1.343       .  D
C4210      H4218   1.086   1_545  S
C4211      H4219   1.087       .  S
C4211      C4212   1.343       .  D
C4212      H4220   1.086   1_545  S
C4221      C4229   1.490       .  S
C4221      C4222   1.406       .  A
C4221      C4226   1.406       .  A
C4222      C4223   1.399       .  A
C4222      H4231   1.083       .  S
C4223      C4224   1.406       .  A
C4223      H4232   1.081       .  S
C4224      C4227   1.490       .  S
C4224      C4225   1.406   1_565  A
C4225      C4226   1.400   1_545  A
C4225      H4233   1.083       .  S
C4226      H4234   1.081   1_565  S
C4227      H4235   1.087   1_565  S
C4227      C4228   1.352       .  D
C4228      H4236   1.084       .  S
C4229      H4237   1.087       .  S
C4229      C4230   1.351       .  D
C4230      H4238   1.084   1_565  S
C4239      C4247   1.483       .  S
C4239      C4240   1.404   1_565  A
C4239      C4244   1.405       .  A
C4240      C4241   1.398   1_545  A
C4240      H4249   1.083       .  S
C4241      C4242   1.407       .  A
C4241      H4250   1.080   1_565  S
C4242      C4245   1.485       .  S
C4242      C4243   1.404       .  A
C4243      C4244   1.395       .  A
C4243      H4251   1.084       .  S
C4244      H4252   1.081       .  S
C4245      H4253   1.087       .  S
C4245      C4246   1.349       .  D
C4246      H4254   1.083       .  S
C4247      H4255   1.087       .  S
C4247      C4248   1.348       .  D
C4248      H4256   1.084       .  S
C4257      C4265   1.483       .  S
C4257      C4258   1.404   1_565  A
C4257      C4262   1.406       .  A
C4258      C4259   1.394       .  A
C4258      H4267   1.084       .  S
C4259      C4260   1.405   1_545  A
C4259      H4268   1.081       .  S
C4260      C4263   1.485       .  S
C4260      C4261   1.406       .  A
C4261      C4262   1.400       .  A
C4261      H4269   1.083       .  S
C4262      H4270   1.081       .  S
C4263      H4271   1.087       .  S
C4263      C4264   1.349   1_565  D
C4264      H4272   1.084       .  S
C4265      H4273   1.087   1_565  S
C4265      C4266   1.349       .  D
C4266      H4274   1.084       .  S
C4275      C4283   1.489       .  S
C4275      C4276   1.402       .  A
C4275      C4280   1.409       .  A
C4276      C4277   1.400       .  A
C4276      H4285   1.083       .  S
C4277      C4278   1.409       .  A
C4277      H4286   1.082       .  S
C4278      C4281   1.491       .  S
C4278      C4279   1.403       .  A
C4279      C4280   1.402       .  A
C4279      H4287   1.083       .  S
C4280      H4288   1.083       .  S
C4281      H4289   1.087       .  S
C4281      C4282   1.346       .  D
C4282      H4290   1.086   1_565  S
C4283      H4291   1.087       .  S
C4283      C4284   1.344       .  D
C4284      H4292   1.087   1_565  S
C4293      C4301   1.488       .  S
C4293      C4294   1.405       .  A
C4293      C4298   1.407       .  A
C4294      C4295   1.398       .  A
C4294      H4303   1.084       .  S
C4295      C4296   1.406       .  A
C4295      H4304   1.081       .  S
C4296      C4299   1.487       .  S
C4296      C4297   1.404       .  A
C4297      C4298   1.399       .  A
C4297      H4305   1.083       .  S
C4298      H4306   1.080       .  S
C4299      H4307   1.087       .  S
C4299      C4300   1.349       .  D
C4300      H4308   1.084       .  S
C4301      H4309   1.087       .  S
C4301      C4302   1.350       .  D
C4302      H4310   1.084       .  S
C4311      C4319   1.479       .  S
C4311      C4312   1.403       .  A
C4311      C4316   1.405       .  A
C4312      C4313   1.398       .  A
C4312      H4321   1.083       .  S
C4313      C4314   1.405       .  A
C4313      H4322   1.083       .  S
C4314      C4317   1.481       .  S
C4314      C4315   1.403       .  A
C4315      C4316   1.399       .  A
C4315      H4323   1.083       .  S
C4316      H4324   1.083       .  S
C4317      H4325   1.087       .  S
C4317      C4318   1.344       .  D
C4318      H4326   1.087       .  S
C4319      H4327   1.087       .  S
C4319      C4320   1.345       .  D
C4320      H4328   1.087       .  S
C4329      C4337   1.482       .  S
C4329      C4330   1.404       .  A
C4329      C4334   1.406       .  A
C4330      C4331   1.395       .  A
C4330      H4339   1.084       .  S
C4331      C4332   1.406       .  A
C4331      H4340   1.081       .  S
C4332      C4335   1.481       .  S
C4332      C4333   1.403       .  A
C4333      C4334   1.395       .  A
C4333      H4341   1.084       .  S
C4334      H4342   1.080       .  S
C4335      H4343   1.087       .  S
C4335      C4336   1.345       .  D
C4336      H4344   1.084       .  S
C4337      H4345   1.087       .  S
C4337      C4338   1.346       .  D
C4338      H4346   1.084       .  S
C4347      C4355   1.493       .  S
C4347      C4348   1.406       .  A
C4347      C4352   1.408       .  A
C4348      C4349   1.403       .  A
C4348      H4357   1.083       .  S
C4349      C4350   1.408       .  A
C4349      H4358   1.081       .  S
C4350      C4353   1.491       .  S
C4350      C4351   1.404       .  A
C4351      C4352   1.398       .  A
C4351      H4359   1.084       .  S
C4352      H4360   1.081       .  S
C4353      H4361   1.087       .  S
C4353      C4354   1.350       .  D
C4354      H4362   1.084       .  S
C4355      H4363   1.087       .  S
C4355      C4356   1.349       .  D
C4356      H4364   1.084       .  S
C4365      C4373   1.489       .  S
C4365      C4366   1.406       .  A
C4365      C4370   1.406       .  A
C4366      C4367   1.403       .  A
C4366      H4375   1.081       .  S
C4367      C4368   1.413       .  A
C4367      H4376   1.081       .  S
C4368      C4371   1.494       .  S
C4368      C4369   1.401       .  A
C4369      C4370   1.397       .  A
C4369      H4377   1.083       .  S
C4370      H4378   1.083       .  S
C4371      H4379   1.087       .  S
C4371      C4372   1.343       .  D
C4372      H4380   1.084       .  S
C4373      H4381   1.087       .  S
C4373      C4374   1.354       .  D
C4374      H4382   1.084       .  S
C4383      C4391   1.489       .  S
C4383      C4384   1.403       .  A
C4383      C4388   1.408       .  A
C4384      C4385   1.397       .  A
C4384      H4393   1.084       .  S
C4385      C4386   1.407       .  A
C4385      H4394   1.082   1_455  S
C4386      C4389   1.489       .  S
C4386      C4387   1.404       .  A
C4387      C4388   1.403       .  A
C4387      H4395   1.083       .  S
C4388      H4396   1.081       .  S
C4389      H4397   1.087       .  S
C4389      C4390   1.345       .  D
C4390      H4398   1.086       .  S
C4391      H4399   1.087       .  S
C4391      C4392   1.348       .  D
C4392      H4400   1.085       .  S
C4401      C4409   1.488       .  S
C4401      C4402   1.405       .  A
C4401      C4406   1.407       .  A
C4402      C4403   1.398       .  A
C4402      H4411   1.084       .  S
C4403      C4404   1.407       .  A
C4403      H4412   1.080       .  S
C4404      C4407   1.489       .  S
C4404      C4405   1.405       .  A
C4405      C4406   1.399       .  A
C4405      H4413   1.083       .  S
C4406      H4414   1.080       .  S
C4407      H4415   1.087       .  S
C4407      C4408   1.348       .  D
C4408      H4416   1.084       .  S
C4409      H4417   1.087       .  S
C4409      C4410   1.351       .  D
C4410      H4418   1.083       .  S
C4419      C4427   1.479       .  S
C4419      C4420   1.406       .  A
C4419      C4424   1.403       .  A
C4420      C4421   1.400       .  A
C4420      H4429   1.083       .  S
C4421      C4422   1.403       .  A
C4421      H4430   1.083       .  S
C4422      C4425   1.478       .  S
C4422      C4423   1.403       .  A
C4423      C4424   1.397       .  A
C4423      H4431   1.083       .  S
C4424      H4432   1.083       .  S
C4425      H4433   1.087       .  S
C4425      C4426   1.344       .  D
C4426      H4434   1.087       .  S
C4427      H4435   1.087       .  S
C4427      C4428   1.346       .  D
C4428      H4436   1.086       .  S
C4437      C4445   1.484       .  S
C4437      C4438   1.401       .  A
C4437      C4442   1.409       .  A
C4438      C4439   1.399       .  A
C4438      H4447   1.083       .  S
C4439      C4440   1.407       .  A
C4439      H4448   1.083       .  S
C4440      C4443   1.481       .  S
C4440      C4441   1.400       .  A
C4441      C4442   1.398       .  A
C4441      H4449   1.083       .  S
C4442      H4450   1.083       .  S
C4443      H4451   1.087       .  S
C4443      C4444   1.342       .  D
C4444      H4452   1.087       .  S
C4445      H4453   1.087       .  S
C4445      C4446   1.342       .  D
C4446      H4454   1.087       .  S
C4455      C4463   1.490       .  S
C4455      C4456   1.404       .  A
C4455      C4460   1.408       .  A
C4456      C4457   1.398       .  A
C4456      H4465   1.083       .  S
C4457      C4458   1.408       .  A
C4457      H4466   1.079       .  S
C4458      C4461   1.491       .  S
C4458      C4459   1.405       .  A
C4459      C4460   1.399       .  A
C4459      H4467   1.084       .  S
C4460      H4468   1.080       .  S
C4461      H4469   1.087       .  S
C4461      C4462   1.350       .  D
C4462      H4470   1.082       .  S
C4463      H4471   1.087       .  S
C4463      C4464   1.348       .  D
C4464      H4472   1.083       .  S
C4473      C4481   1.483       .  S
C4473      C4474   1.404       .  A
C4473      C4478   1.407       .  A
C4474      C4475   1.395   1_655  A
C4474      H4483   1.084       .  S
C4475      C4476   1.404       .  A
C4475      H4484   1.082       .  S
C4476      C4479   1.481       .  S
C4476      C4477   1.404   1_455  A
C4477      C4478   1.398       .  A
C4477      H4485   1.083   1_655  S
C4478      H4486   1.081       .  S
C4479      H4487   1.087       .  S
C4479      C4480   1.348       .  D
C4480      H4488   1.085       .  S
C4481      H4489   1.087       .  S
C4481      C4482   1.349       .  D
C4482      H4490   1.084       .  S
C4491      C4499   1.486       .  S
C4491      C4492   1.404       .  A
C4491      C4496   1.407       .  A
C4492      C4493   1.397       .  A
C4492      H4501   1.084       .  S
C4493      C4494   1.407       .  A
C4493      H4502   1.081       .  S
C4494      C4497   1.486       .  S
C4494      C4495   1.403       .  A
C4495      C4496   1.397       .  A
C4495      H4503   1.083       .  S
C4496      H4504   1.080       .  S
C4497      H4505   1.087       .  S
C4497      C4498   1.347       .  D
C4498      H4506   1.084       .  S
C4499      H4507   1.087       .  S
C4499      C4500   1.348       .  D
C4500      H4508   1.083       .  S
C4509      C4517   1.482       .  S
C4509      C4510   1.406       .  A
C4509      C4514   1.404       .  A
C4510      C4511   1.399       .  A
C4510      H4519   1.083       .  S
C4511      C4512   1.403       .  A
C4511      H4520   1.083       .  S
C4512      C4515   1.479       .  S
C4512      C4513   1.404       .  A
C4513      C4514   1.399       .  A
C4513      H4521   1.083       .  S
C4514      H4522   1.083       .  S
C4515      H4523   1.087       .  S
C4515      C4516   1.344       .  D
C4516      H4524   1.086       .  S
C4517      H4525   1.087       .  S
C4517      C4518   1.345       .  D
C4518      H4526   1.086       .  S
C4527      C4535   1.482       .  S
C4527      C4528   1.402       .  A
C4527      C4532   1.406       .  A
C4528      C4529   1.397       .  A
C4528      H4537   1.083       .  S
C4529      C4530   1.407       .  A
C4529      H4538   1.082       .  S
C4530      C4533   1.485       .  S
C4530      C4531   1.404       .  A
C4531      C4532   1.400       .  A
C4531      H4539   1.083       .  S
C4532      H4540   1.082       .  S
C4533      H4541   1.087       .  S
C4533      C4534   1.346       .  D
C4534      H4542   1.086       .  S
C4535      H4543   1.087       .  S
C4535      C4536   1.345       .  D
C4536      H4544   1.086       .  S
C4545      C4553   1.493       .  S
C4545      C4546   1.406       .  A
C4545      C4550   1.409       .  A
C4546      C4547   1.399       .  A
C4546      H4555   1.083       .  S
C4547      C4548   1.407       .  A
C4547      H4556   1.080       .  S
C4548      C4551   1.489       .  S
C4548      C4549   1.405       .  A
C4549      C4550   1.398       .  A
C4549      H4557   1.084       .  S
C4550      H4558   1.079       .  S
C4551      H4559   1.087       .  S
C4551      C4552   1.351       .  D
C4552      H4560   1.083       .  S
C4553      H4561   1.087       .  S
C4553      C4554   1.349       .  D
C4554      H4562   1.082       .  S
C4563      C4571   1.488       .  S
C4563      C4564   1.408       .  A
C4563      C4568   1.403       .  A
C4564      C4565   1.402       .  A
C4564      H4573   1.081       .  S
C4565      C4566   1.411       .  A
C4565      H4574   1.079       .  S
C4566      C4569   1.492       .  S
C4566      C4567   1.404       .  A
C4567      C4568   1.395       .  A
C4567      H4575   1.083       .  S
C4568      H4576   1.084       .  S
C4569      H4577   1.087       .  S
C4569      C4570   1.348       .  D
C4570      H4578   1.083       .  S
C4571      H4579   1.087       .  S
C4571      C4572   1.349       .  D
C4572      H4580   1.084       .  S
C4581      C4589   1.490       .  S
C4581      C4582   1.403       .  A
C4581      C4586   1.409       .  A
C4582      C4583   1.400       .  A
C4582      H4591   1.083       .  S
C4583      C4584   1.410       .  A
C4583      H4592   1.081       .  S
C4584      C4587   1.493       .  S
C4584      C4585   1.403       .  A
C4585      C4586   1.400       .  A
C4585      H4593   1.083       .  S
C4586      H4594   1.082       .  S
C4587      H4595   1.087       .  S
C4587      C4588   1.343       .  D
C4588      H4596   1.085       .  S
C4589      H4597   1.087       .  S
C4589      C4590   1.343       .  D
C4590      H4598   1.085       .  S
C4599      C4607   1.488       .  S
C4599      C4600   1.402       .  A
C4599      C4604   1.407       .  A
C4600      C4601   1.402       .  A
C4600      H4609   1.083       .  S
C4601      C4602   1.411       .  A
C4601      H4610   1.079       .  S
C4602      C4605   1.492       .  S
C4602      C4603   1.404       .  A
C4603      C4604   1.395       .  A
C4603      H4611   1.084       .  S
C4604      H4612   1.082       .  S
C4605      H4613   1.087       .  S
C4605      C4606   1.348       .  D
C4606      H4614   1.083       .  S
C4607      H4615   1.087       .  S
C4607      C4608   1.343       .  D
C4608      H4616   1.086       .  S
C4617      C4625   1.483       .  S
C4617      C4618   1.403       .  A
C4617      C4622   1.407       .  A
C4618      C4619   1.396       .  A
C4618      H4627   1.084       .  S
C4619      C4620   1.407       .  A
C4619      H4628   1.080       .  S
C4620      C4623   1.484       .  S
C4620      C4621   1.403       .  A
C4621      C4622   1.397       .  A
C4621      H4629   1.084       .  S
C4622      H4630   1.081       .  S
C4623      H4631   1.087       .  S
C4623      C4624   1.346       .  D
C4624      H4632   1.084       .  S
C4625      H4633   1.087       .  S
C4625      C4626   1.346       .  D
C4626      H4634   1.084       .  S
C4635      C4643   1.481       .  S
C4635      C4636   1.403       .  A
C4635      C4640   1.406       .  A
C4636      C4637   1.394       .  A
C4636      H4645   1.084       .  S
C4637      C4638   1.406       .  A
C4637      H4646   1.080       .  S
C4638      C4641   1.482       .  S
C4638      C4639   1.404       .  A
C4639      C4640   1.397       .  A
C4639      H4647   1.084       .  S
C4640      H4648   1.080       .  S
C4641      H4649   1.087       .  S
C4641      C4642   1.348       .  D
C4642      H4650   1.083       .  S
C4643      H4651   1.087       .  S
C4643      C4644   1.347       .  D
C4644      H4652   1.084       .  S
C4653      C4661   1.487       .  S
C4653      C4654   1.401   1_455  A
C4653      C4658   1.409       .  A
C4654      C4655   1.397       .  A
C4654      H4663   1.083       .  S
C4655      C4656   1.409       .  A
C4655      H4664   1.081       .  S
C4656      C4659   1.489       .  S
C4656      C4657   1.403   1_655  A
C4657      C4658   1.399       .  A
C4657      H4665   1.083       .  S
C4658      H4666   1.082       .  S
C4659      H4667   1.087       .  S
C4659      C4660   1.342       .  D
C4660      H4668   1.085   1_655  S
C4661      H4669   1.087       .  S
C4661      C4662   1.341       .  D
C4662      H4670   1.085       .  S
C4671      C4679   1.471       .  S
C4671      C4672   1.401       .  A
C4671      C4676   1.404       .  A
C4672      C4673   1.397       .  A
C4672      H4681   1.083       .  S
C4673      C4674   1.405       .  A
C4673      H4682   1.083       .  S
C4674      C4677   1.471       .  S
C4674      C4675   1.400       .  A
C4675      C4676   1.393       .  A
C4675      H4683   1.083       .  S
C4676      H4684   1.083       .  S
C4677      H4685   1.087       .  S
C4677      C4678   1.341       .  D
C4678      H4686   1.087       .  S
C4679      H4687   1.087       .  S
C4679      C4680   1.340       .  D
C4680      H4688   1.087       .  S
C4689      C4697   1.489       .  S
C4689      C4690   1.404       .  A
C4689      C4694   1.408       .  A
C4690      C4691   1.399       .  A
C4690      H4699   1.083       .  S
C4691      C4692   1.407       .  A
C4691      H4700   1.082       .  S
C4692      C4695   1.488       .  S
C4692      C4693   1.404       .  A
C4693      C4694   1.401       .  A
C4693      H4701   1.083   1_655  S
C4694      H4702   1.082       .  S
C4695      H4703   1.087   1_655  S
C4695      C4696   1.346       .  D
C4696      H4704   1.086       .  S
C4697      H4705   1.087       .  S
C4697      C4698   1.348       .  D
C4698      H4706   1.085       .  S
C4707      C4715   1.489       .  S
C4707      C4708   1.405       .  A
C4707      C4712   1.407       .  A
C4708      C4709   1.397       .  A
C4708      H4717   1.084       .  S
C4709      C4710   1.406       .  A
C4709      H4718   1.079       .  S
C4710      C4713   1.489       .  S
C4710      C4711   1.406       .  A
C4711      C4712   1.399       .  A
C4711      H4719   1.084       .  S
C4712      H4720   1.080       .  S
C4713      H4721   1.087       .  S
C4713      C4714   1.351       .  D
C4714      H4722   1.082       .  S
C4715      H4723   1.087       .  S
C4715      C4716   1.349       .  D
C4716      H4724   1.083       .  S
C4725      C4733   1.478       .  S
C4725      C4726   1.403       .  A
C4725      C4730   1.405       .  A
C4726      C4727   1.397       .  A
C4726      H4735   1.083       .  S
C4727      C4728   1.404       .  A
C4727      H4736   1.083       .  S
C4728      C4731   1.478       .  S
C4728      C4729   1.403       .  A
C4729      C4730   1.399       .  A
C4729      H4737   1.083       .  S
C4730      H4738   1.083       .  S
C4731      H4739   1.087       .  S
C4731      C4732   1.343       .  D
C4732      H4740   1.087       .  S
C4733      H4741   1.087       .  S
C4733      C4734   1.345       .  D
C4734      H4742   1.086       .  S
C4743      C4751   1.488       .  S
C4743      C4744   1.404       .  A
C4743      C4748   1.408       .  A
C4744      C4745   1.397       .  A
C4744      H4753   1.083       .  S
C4745      C4746   1.407       .  A
C4745      H4754   1.080       .  S
C4746      C4749   1.486       .  S
C4746      C4747   1.404       .  A
C4747      C4748   1.397       .  A
C4747      H4755   1.084       .  S
C4748      H4756   1.080       .  S
C4749      H4757   1.087       .  S
C4749      C4750   1.348       .  D
C4750      H4758   1.083       .  S
C4751      H4759   1.087       .  S
C4751      C4752   1.347       .  D
C4752      H4760   1.083       .  S
C4761      C4769   1.482       .  S
C4761      C4762   1.403       .  A
C4761      C4766   1.406       .  A
C4762      C4763   1.394       .  A
C4762      H4771   1.083       .  S
C4763      C4764   1.405       .  A
C4763      H4772   1.081       .  S
C4764      C4767   1.481       .  S
C4764      C4765   1.404       .  A
C4765      C4766   1.397       .  A
C4765      H4773   1.084       .  S
C4766      H4774   1.081       .  S
C4767      H4775   1.087       .  S
C4767      C4768   1.348       .  D
C4768      H4776   1.084       .  S
C4769      H4777   1.087       .  S
C4769      C4770   1.347       .  D
C4770      H4778   1.084       .  S
C4779      C4787   1.485       .  S
C4779      C4780   1.403       .  A
C4779      C4784   1.406       .  A
C4780      C4781   1.401       .  A
C4780      H4789   1.083       .  S
C4781      C4782   1.408       .  A
C4781      H4790   1.082       .  S
C4782      C4785   1.487       .  S
C4782      C4783   1.403       .  A
C4783      C4784   1.398       .  A
C4783      H4791   1.083       .  S
C4784      H4792   1.082       .  S
C4785      H4793   1.087       .  S
C4785      C4786   1.347       .  D
C4786      H4794   1.085       .  S
C4787      H4795   1.087       .  S
C4787      C4788   1.345       .  D
C4788      H4796   1.086       .  S
C4797      C4805   1.498       .  S
C4797      C4798   1.408       .  A
C4797      C4802   1.407       .  A
C4798      C4799   1.405       .  A
C4798      H4807   1.083       .  S
C4799      C4800   1.408       .  A
C4799      H4808   1.081       .  S
C4800      C4803   1.498       .  S
C4800      C4801   1.407       .  A
C4801      C4802   1.401       .  A
C4801      H4809   1.083       .  S
C4802      H4810   1.080       .  S
C4803      H4811   1.087       .  S
C4803      C4804   1.354       .  D
C4804      H4812   1.084       .  S
C4805      H4813   1.087       .  S
C4805      C4806   1.355       .  D
C4806      H4814   1.083       .  S
C4815      C4823   1.484       .  S
C4815      C4816   1.404       .  A
C4815      C4820   1.406       .  A
C4816      C4817   1.399       .  A
C4816      H4825   1.083       .  S
C4817      C4818   1.405       .  A
C4817      H4826   1.083       .  S
C4818      C4821   1.483       .  S
C4818      C4819   1.404       .  A
C4819      C4820   1.401       .  A
C4819      H4827   1.083       .  S
C4820      H4828   1.083       .  S
C4821      H4829   1.087       .  S
C4821      C4822   1.344       .  D
C4822      H4830   1.087       .  S
C4823      H4831   1.087       .  S
C4823      C4824   1.347       .  D
C4824      H4832   1.086       .  S
C4833      C4841   1.492       .  S
C4833      C4834   1.403       .  A
C4833      C4838   1.410       .  A
C4834      C4835   1.395       .  A
C4834      H4843   1.084       .  S
C4835      C4836   1.403       .  A
C4835      H4844   1.084       .  S
C4836      C4839   1.492       .  S
C4836      C4837   1.410       .  A
C4837      C4838   1.406       .  A
C4837      H4845   1.080       .  S
C4838      H4846   1.081       .  S
C4839      H4847   1.087       .  S
C4839      C4840   1.350       .  D
C4840      H4848   1.084       .  S
C4841      H4849   1.087       .  S
C4841      C4842   1.351       .  D
C4842      H4850   1.084       .  S
C4851      C4859   1.496       .  S
C4851      C4852   1.407       .  A
C4851      C4856   1.408       .  A
C4852      C4853   1.401       .  A
C4852      H4861   1.083       .  S
C4853      C4854   1.408       .  A
C4853      H4862   1.080       .  S
C4854      C4857   1.496       .  S
C4854      C4855   1.407       .  A
C4855      C4856   1.401       .  A
C4855      H4863   1.083       .  S
C4856      H4864   1.079       .  S
C4857      H4865   1.087       .  S
C4857      C4858   1.352       .  D
C4858      H4866   1.083       .  S
C4859      H4867   1.087       .  S
C4859      C4860   1.353       .  D
C4860      H4868   1.083       .  S
C4869      C4877   1.482       .  S
C4869      C4870   1.403       .  A
C4869      C4874   1.405       .  A
C4870      C4871   1.399       .  A
C4870      H4879   1.083       .  S
C4871      C4872   1.405       .  A
C4871      H4880   1.083       .  S
C4872      C4875   1.481       .  S
C4872      C4873   1.404       .  A
C4873      C4874   1.401       .  A
C4873      H4881   1.083       .  S
C4874      H4882   1.083       .  S
C4875      H4883   1.087       .  S
C4875      C4876   1.345       .  D
C4876      H4884   1.086       .  S
C4877      H4885   1.087       .  S
C4877      C4878   1.345       .  D
C4878      H4886   1.086       .  S
C4887      C4895   1.480       .  S
C4887      C4888   1.403       .  A
C4887      C4892   1.404       .  A
C4888      C4889   1.396   1_655  A
C4888      H4897   1.084       .  S
C4889      C4890   1.406       .  A
C4889      H4898   1.081       .  S
C4890      C4893   1.483       .  S
C4890      C4891   1.405       .  A
C4891      C4892   1.397   1_455  A
C4891      H4899   1.083       .  S
C4892      H4900   1.082       .  S
C4893      H4901   1.087       .  S
C4893      C4894   1.349       .  D
C4894      H4902   1.084       .  S
C4895      H4903   1.087       .  S
C4895      C4896   1.349       .  D
C4896      H4904   1.085       .  S
C4905      C4913   1.483       .  S
C4905      C4906   1.404       .  A
C4905      C4910   1.406       .  A
C4906      C4907   1.396       .  A
C4906      H4915   1.084       .  S
C4907      C4908   1.406       .  A
C4907      H4916   1.080       .  S
C4908      C4911   1.483       .  S
C4908      C4909   1.404       .  A
C4909      C4910   1.395       .  A
C4909      H4917   1.084       .  S
C4910      H4918   1.080       .  S
C4911      H4919   1.087       .  S
C4911      C4912   1.349       .  D
C4912      H4920   1.083       .  S
C4913      H4921   1.087       .  S
C4913      C4914   1.348       .  D
C4914      H4922   1.083       .  S
C4923      C4931   1.488       .  S
C4923      C4924   1.406       .  A
C4923      C4928   1.405       .  A
C4924      C4925   1.401       .  A
C4924      H4933   1.083       .  S
C4925      C4926   1.405       .  A
C4925      H4934   1.082       .  S
C4926      C4929   1.490       .  S
C4926      C4927   1.407       .  A
C4927      C4928   1.404       .  A
C4927      H4935   1.083       .  S
C4928      H4936   1.083       .  S
C4929      H4937   1.087       .  S
C4929      C4930   1.349       .  D
C4930      H4938   1.086       .  S
C4931      H4939   1.088       .  S
C4931      C4932   1.351       .  D
C4932      H4940   1.086       .  S
C4941      C4949   1.489       .  S
C4941      C4942   1.405       .  A
C4941      C4946   1.407       .  A
C4942      C4943   1.397       .  A
C4942      H4951   1.084       .  S
C4943      C4944   1.407       .  A
C4943      H4952   1.079       .  S
C4944      C4947   1.491       .  S
C4944      C4945   1.406       .  A
C4945      C4946   1.401       .  A
C4945      H4953   1.083       .  S
C4946      H4954   1.080       .  S
C4947      H4955   1.087       .  S
C4947      C4948   1.350       .  D
C4948      H4956   1.083       .  S
C4949      H4957   1.087       .  S
C4949      C4950   1.350       .  D
C4950      H4958   1.083       .  S
C4959      C4967   1.482       .  S
C4959      C4960   1.403       .  A
C4959      C4964   1.406       .  A
C4960      C4961   1.400       .  A
C4960      H4969   1.083       .  S
C4961      C4962   1.408       .  A
C4961      H4970   1.082       .  S
C4962      C4965   1.482       .  S
C4962      C4963   1.402       .  A
C4963      C4964   1.394       .  A
C4963      H4971   1.084       .  S
C4964      H4972   1.083       .  S
C4965      H4973   1.087       .  S
C4965      C4966   1.345       .  D
C4966      H4974   1.085       .  S
C4967      H4975   1.087       .  S
C4967      C4968   1.343       .  D
C4968      H4976   1.086       .  S
C4977      C4985   1.487       .  S
C4977      C4978   1.404       .  A
C4977      C4982   1.406       .  A
C4978      C4979   1.403       .  A
C4978      H4987   1.083       .  S
C4979      C4980   1.409       .  A
C4979      H4988   1.081       .  S
C4980      C4983   1.487       .  S
C4980      C4981   1.403       .  A
C4981      C4982   1.394       .  A
C4981      H4989   1.084       .  S
C4982      H4990   1.082       .  S
C4983      H4991   1.087       .  S
C4983      C4984   1.347       .  D
C4984      H4992   1.085       .  S
C4985      H4993   1.087       .  S
C4985      C4986   1.345       .  D
C4986      H4994   1.086       .  S
C4995      C5003   1.490       .  S
C4995      C4996   1.403       .  A
C4995      C5000   1.409       .  A
C4996      C4997   1.402       .  A
C4996      H5005   1.083       .  S
C4997      C4998   1.409       .  A
C4997      H5006   1.083       .  S
C4998      C5001   1.489       .  S
C4998      C4999   1.402       .  A
C4999      C5000   1.401       .  A
C4999      H5007   1.083       .  S
C5000      H5008   1.082       .  S
C5001      H5009   1.087       .  S
C5001      C5002   1.345       .  D
C5002      H5010   1.086       .  S
C5003      H5011   1.087       .  S
C5003      C5004   1.345       .  D
C5004      H5012   1.086       .  S
C5013      C5021   1.493       .  S
C5013      C5014   1.406       .  A
C5013      C5018   1.408       .  A
C5014      C5015   1.398       .  A
C5014      H5023   1.083       .  S
C5015      C5016   1.407       .  A
C5015      H5024   1.080       .  S
C5016      C5019   1.494       .  S
C5016      C5017   1.407       .  A
C5017      C5018   1.402       .  A
C5017      H5025   1.083       .  S
C5018      H5026   1.080       .  S
C5019      H5027   1.087       .  S
C5019      C5020   1.352       .  D
C5020      H5028   1.083       .  S
C5021      H5029   1.087       .  S
C5021      C5022   1.352       .  D
C5022      H5030   1.083       .  S
C5031      C5039   1.485       .  S
C5031      C5032   1.405       .  A
C5031      C5036   1.406       .  A
C5032      C5033   1.402       .  A
C5032      H5041   1.083       .  S
C5033      C5034   1.404       .  A
C5033      H5042   1.083       .  S
C5034      C5037   1.481       .  S
C5034      C5035   1.403       .  A
C5035      C5036   1.399       .  A
C5035      H5043   1.083       .  S
C5036      H5044   1.083       .  S
C5037      H5045   1.087       .  S
C5037      C5038   1.347       .  D
C5038      H5046   1.086       .  S
C5039      H5047   1.087       .  S
C5039      C5040   1.345       .  D
C5040      H5048   1.087       .  S
C5049      C5057   1.484       .  S
C5049      C5050   1.404       .  A
C5049      C5054   1.406       .  A
C5050      C5051   1.394       .  A
C5050      H5059   1.084       .  S
C5051      C5052   1.406       .  A
C5051      H5060   1.080       .  S
C5052      C5055   1.484       .  S
C5052      C5053   1.404       .  A
C5053      C5054   1.397       .  A
C5053      H5061   1.084       .  S
C5054      H5062   1.079       .  S
C5055      H5063   1.087       .  S
C5055      C5056   1.348       .  D
C5056      H5064   1.083       .  S
C5057      H5065   1.087       .  S
C5057      C5058   1.349       .  D
C5058      H5066   1.083       .  S
C5067      C5075   1.480       .  S
C5067      C5068   1.403       .  A
C5067      C5072   1.405       .  A
C5068      C5069   1.396       .  A
C5068      H5077   1.084       .  S
C5069      C5070   1.405       .  A
C5069      H5078   1.081       .  S
C5070      C5073   1.482       .  S
C5070      C5071   1.404       .  A
C5071      C5072   1.396       .  A
C5071      H5079   1.084       .  S
C5072      H5080   1.081       .  S
C5073      H5081   1.087       .  S
C5073      C5074   1.348       .  D
C5074      H5082   1.085       .  S
C5075      H5083   1.087       .  S
C5075      C5076   1.348       .  D
C5076      H5084   1.085       .  S
C5085      C5093   1.486       .  S
C5085      C5086   1.404       .  A
C5085      C5090   1.406       .  A
C5086      C5087   1.400       .  A
C5086      H5095   1.083       .  S
C5087      C5088   1.404       .  A
C5087      H5096   1.083       .  S
C5088      C5091   1.488       .  S
C5088      C5089   1.407       .  A
C5089      C5090   1.404       .  A
C5089      H5097   1.083   1_455  S
C5090      H5098   1.083   1_455  S
C5091      H5099   1.087       .  S
C5091      C5092   1.349       .  D
C5092      H5100   1.086       .  S
C5093      H5101   1.087       .  S
C5093      C5094   1.348       .  D
C5094      H5102   1.086       .  S
C5103      C5111   1.488       .  S
C5103      C5104   1.403       .  A
C5103      C5108   1.408       .  A
C5104      C5105   1.401       .  A
C5104      H5113   1.083       .  S
C5105      C5106   1.408       .  A
C5105      H5114   1.082       .  S
C5106      C5109   1.490       .  S
C5106      C5107   1.404       .  A
C5107      C5108   1.402       .  A
C5107      H5115   1.083       .  S
C5108      H5116   1.083       .  S
C5109      H5117   1.087       .  S
C5109      C5110   1.346       .  D
C5110      H5118   1.086       .  S
C5111      H5119   1.087       .  S
C5111      C5112   1.346       .  D
C5112      H5120   1.086       .  S
