geometry optimzed in LAMMPS
_audit_creation_date              2020-12-01 
_audit_creation_method            'lammps2cif' 
_symmetry_space_group_name_H-M    'P1' 
_symmetry_Int_Tables_number       1 
_symmetry_cell_setting            triclinic 
loop_ 
_symmetry_equiv_pos_as_xyz 
  x,y,z 
_cell_length_a                    50.43819675 
_cell_length_b                    50.39476975779732 
_cell_length_c                    36.662876797361484 
_cell_angle_alpha                 86.63275446949984 
_cell_angle_beta                  90.25629336558504 
_cell_angle_gamma                 119.90815727306648 
loop_ 
_atom_site_label 
_atom_site_type_symbol 
_atom_site_fract_x 
_atom_site_fract_y 
_atom_site_fract_z 
_atom_site_charge 
N1          N  0.22330345  0.35933115  0.63224153    -0.27400
N2          N  0.20089755  0.36352455  0.64377731    -0.35300
C3          C  0.20972888  0.39360902  0.63695793     0.00900
C4          C  0.23879298  0.40851579  0.62017690     0.07000
C5          C  0.24632245  0.38591333  0.61752151    -0.06100
H6          H  0.19573288  0.40367999  0.64263214     0.07600
H7          H  0.26715167  0.38856233  0.60556722     0.08800
Cu8        Cu  0.15908024  0.32630525  0.66647743     0.44200
Cu9        Cu  0.22338475  0.31834850  0.63655387     0.42000
Cu10       Cu  0.15848764  0.25180021  0.67221647     0.43900
N11         N  0.12178779  0.28346008  0.68723414    -0.34800
N12         N  0.12231586  0.25735450  0.68867168    -0.29100
C13         C  0.09582244  0.23454478  0.70364430    -0.05200
C14         C  0.07739449  0.24637836  0.71218864     0.07100
C15         C  0.09445912  0.27748228  0.70147765     0.00900
H16         H  0.09049798  0.21097673  0.70832618     0.08500
H17         H  0.08759060  0.29448937  0.70411908     0.07600
N18         N  0.19830206  0.25186001  0.65806762    -0.36200
N19         N  0.22260878  0.27710702  0.64478585    -0.28400
C20         C  0.24580902  0.27160148  0.64049132    -0.03700
C21         C  0.23579200  0.24120577  0.65175597     0.04900
C22         C  0.20533155  0.22938109  0.66260168     0.03000
H23         H  0.26850318  0.28891313  0.63085548     0.08100
H24         H  0.18971235  0.20656029  0.67427089     0.07000
N25         N  0.43304242  0.17890680  0.67773855    -0.27400
N26         N  0.43613472  0.15476795  0.67271249    -0.35300
C27         C  0.46391197  0.16078702  0.68448563     0.00900
C28         C  0.47886334  0.19008481  0.69708989     0.07000
C29         C  0.45845787  0.20062267  0.69267277    -0.06100
H30         H  0.47175744  0.14431453  0.68616926     0.07600
H31         H  0.46101997  0.22172370  0.70205687     0.08800
Cu32       Cu  0.40024957  0.11320637  0.65515523     0.44200
Cu33       Cu  0.39300741  0.18039798  0.67074112     0.42000
Cu34       Cu  0.32588339  0.10745201  0.66588475     0.43900
N35         N  0.35846334  0.07423600  0.64345853    -0.34800
N36         N  0.33153687  0.07174362  0.65028354    -0.29100
C37         C  0.30917292  0.04491790  0.63904204    -0.05200
C38         C  0.32239316  0.02968054  0.62400724     0.07100
C39         C  0.35371705  0.04909696  0.62680236     0.00900
H40         H  0.28522515  0.03839241  0.63858282     0.08500
H41         H  0.37172548  0.04583172  0.61589350     0.07600
N42         N  0.32459573  0.14771946  0.66839005    -0.36200
N43         N  0.34948452  0.17490182  0.66902504    -0.28400
C44         C  0.34139569  0.19664827  0.66750641    -0.03700
C45         C  0.30975117  0.18244853  0.66568341     0.04900
C46         C  0.29995848  0.15135259  0.66642333     0.03000
H47         H  0.35748770  0.22098279  0.66738811     0.08100
H48         H  0.27677098  0.13271949  0.66424833     0.07000
C49         C  0.04657963  0.22887179  0.72975503     0.80100
N50         N  0.02166612  0.21315614  0.70897309    -0.78200
C51         C  0.50601874  0.20375281  0.71988926     0.82500
N52         N  0.50217484  0.20215320  0.75673276    -0.78200
C53         C  0.01562327  0.20520530  0.78323314     0.82600
N54         N  0.04351782  0.22449716  0.76687429    -0.79900
C55         C  0.25735835  0.44049142  0.60451842     0.80100
N56         N  0.26557827  0.44547931  0.56832037    -0.78200
C57         C  0.28566902  0.47419122  0.55388010     0.82500
N58         N  0.31463636  0.00816067  0.56446381    -0.78200
C59         C  0.30694658  0.00361583  0.60067191     0.82600
N60         N  0.27007263  0.46448862  0.62658146    -0.79900
N61         N  0.32109424  0.15860110  0.00098214    -0.27400
N62         N  0.34787372  0.18346558  0.00563617    -0.35300
C63         C  0.34274756  0.20353830  0.02285390     0.00900
C64         C  0.31142147  0.19095742  0.02841083     0.07000
C65         C  0.29851955  0.16252852  0.01423013    -0.06100
H66         H  0.36054180  0.22534930  0.03160669     0.07600
H67         H  0.27458052  0.14504683  0.01576006     0.08800
Cu68       Cu  0.39060113  0.18857388  0.98974051     0.44200
Cu69       Cu  0.31532144  0.11762510  0.98355372     0.42000
Cu70       Cu  0.38474987  0.11810424  0.96424485     0.43900
N71         N  0.42845258  0.18565225  0.97013996    -0.34800
N72         N  0.42533988  0.15933580  0.96066536    -0.29100
C73         C  0.45219741  0.16388967  0.94748746    -0.05200
C74         C  0.47371231  0.19447663  0.94894141     0.07100
C75         C  0.45794098  0.20781249  0.96330246     0.00900
H76         H  0.45567115  0.14620745  0.93693456     0.08500
H77         H  0.46696959  0.23188158  0.96731136     0.07600
N78         N  0.34271178  0.07847441  0.96840950    -0.36200
N79         N  0.31676224  0.07801999  0.97486541    -0.28400
C80         C  0.29379942  0.04868214  0.97727319    -0.03100
C81         C  0.30602936  0.02977258  0.97223466     0.04900
C82         C  0.33712387  0.04961987  0.96658788     0.03000
H83         H  0.27018984  0.04167370  0.98357593     0.08100
H84         H  0.35461797  0.04366662  0.96185077     0.07000
N85         N  0.12033594  0.26258431  0.99626496    -0.27400
N86         N  0.12348718  0.23889603  0.98874604    -0.35300
C87         C  0.09840687  0.21904710  0.97113419     0.00900
C88         C  0.07841254  0.23049305  0.96837317     0.07000
C89         C  0.09316963  0.25811645  0.98452321    -0.06100
H90         H  0.09541866  0.19836985  0.95988456     0.07600
H91         H  0.08590930  0.27501293  0.98483240     0.08800
Cu92       Cu  0.16301282  0.23598019  0.00106914     0.44200
Cu93       Cu  0.15534072  0.30340012  0.01376049     0.42000
Cu94       Cu  0.22773214  0.30829195  0.02487900     0.43900
N95         N  0.20512509  0.24085382  0.01863961    -0.34800
N96         N  0.22808368  0.26751587  0.02762643    -0.29100
C97         C  0.25095430  0.26362458  0.04046637    -0.05200
C98         C  0.24256011  0.23317691  0.03915775     0.07100
C99         C  0.21322746  0.21919047  0.02542042     0.00900
H100        H  0.27184499  0.28156924  0.05122613     0.08500
H101        H  0.19834673  0.19492764  0.02244305     0.07600
N102        N  0.22259025  0.34639228  0.01999090    -0.36200
N103        N  0.19570411  0.34464252  0.01676933    -0.28400
C104        C  0.19994982  0.37311777  0.01117473    -0.03700
C105        C  0.23111072  0.39381368  0.01062010     0.04900
C106        C  0.24472691  0.37596015  0.01648451     0.03000
H107        H  0.18177159  0.37816127  0.00572599     0.08100
H108        H  0.26893625  0.38368375  0.01706850     0.07000
C109        C  0.05119319  0.21981988  0.94562306     0.80100
N110        N  0.02358918  0.21316964  0.96037487    -0.78200
C111        C  0.50533742  0.20911991  0.93385104     0.82500
N112        N  0.50987293  0.21004016  0.89714398    -0.78200
C113        C  0.02980343  0.20983364  0.88717255     0.82600
N114        N  0.05415046  0.21828443  0.90908334    -0.79900
C115        C  0.29533815  0.20232342  0.05063726     0.80100
N116        N  0.30005896  0.20450089  0.08718591    -0.78200
C117        C  0.28429748  0.21349236  0.10840126     0.82500
N118        N  0.26457629  0.22135840  0.09252044    -0.78200
C119        C  0.25935230  0.21895576  0.05618014     0.82600
N120        N  0.27452025  0.20903070  0.03527007    -0.79900
N121        N  0.34916608  0.09137106  0.36218852    -0.27400
N122        N  0.32328564  0.08647546  0.34732021    -0.35300
C123        C  0.30280637  0.05606822  0.35190877     0.00900
C124        C  0.31677008  0.04169321  0.37066930     0.07000
C125        C  0.34592934  0.06486381  0.37680916    -0.06100
H126        H  0.27921407  0.04548980  0.34387541     0.07600
H127        H  0.36345709  0.06274189  0.39163034     0.08800
Cu128      Cu  0.31803486  0.12320722  0.32484411     0.44200
Cu129      Cu  0.38811374  0.13345294  0.36413262     0.42000
Cu130      Cu  0.38526412  0.20017049  0.33726431     0.43900
N131        N  0.32079881  0.16560749  0.30875797    -0.34800
N132        N  0.34424013  0.19273734  0.31571951    -0.29100
C133        C  0.33874958  0.21503461  0.30279936    -0.05200
C134        C  0.31083416  0.20163690  0.28627843     0.07100
C135        C  0.30010646  0.17030010  0.29025264     0.00900
H136        H  0.35472881  0.23933674  0.30362924     0.08500
H137        H  0.27891390  0.15227561  0.28019132     0.07600
N138        N  0.42559591  0.20152806  0.35194939    -0.36200
N139        N  0.42630185  0.17637097  0.36210551    -0.28400
C140        C  0.45540596  0.18326966  0.36656307    -0.03700
C141        C  0.47428335  0.21447973  0.35846905     0.04900
C142        C  0.45442538  0.22532689  0.34949289     0.03000
H143        H  0.46213184  0.16638597  0.37358661     0.08100
H144        H  0.46043504  0.24838341  0.33980042     0.07000
N145        N  0.23091334  0.38196938  0.33813815    -0.27400
N146        N  0.25633173  0.38061506  0.34233872    -0.35300
C147        C  0.27650906  0.40550074  0.35969368     0.00900
C148        C  0.26335902  0.42348877  0.36577638     0.07000
C149        C  0.23443570  0.40765406  0.35197882    -0.06100
H150        H  0.29868676  0.40964690  0.36854135     0.07600
H151        H  0.21638435  0.41319758  0.35430463     0.08800
Cu152      Cu  0.26123729  0.34353466  0.32601784     0.44200
Cu153      Cu  0.18999082  0.34685917  0.32049195     0.42000
Cu154      Cu  0.18829308  0.27832546  0.30171544     0.43900
N155        N  0.25672729  0.30298173  0.30563533    -0.34800
N156        N  0.22990261  0.28004225  0.29672684    -0.29100
C157        C  0.23389842  0.25850254  0.28196013    -0.05200
C158        C  0.26457375  0.26763513  0.28183483     0.07100
C159        C  0.27859261  0.29609688  0.29687491     0.00900
H160        H  0.21574835  0.23800039  0.27092270     0.08500
H161        H  0.30291243  0.31129708  0.29943335     0.07600
N162        N  0.14887788  0.28090131  0.30653512    -0.36200
N163        N  0.14948918  0.30665873  0.31297387    -0.28400
C164        C  0.12062733  0.30103753  0.31703788    -0.03700
C165        C  0.10070251  0.27005171  0.31301994     0.04900
C166        C  0.11964445  0.25811557  0.30620329     0.03000
H167        H  0.11480798  0.31809511  0.32405883     0.08100
H168        H  0.11293012  0.23451442  0.30231587     0.07000
C169        C  0.27843165  0.25227227  0.26289040     0.80100
N170        N  0.27272355  0.24734701  0.22695640    -0.78200
C171        C  0.28053853  0.22903525  0.20967314     0.82500
N172        N  0.29227098  0.21368785  0.22924668    -0.78200
C173        C  0.29748469  0.21784503  0.26548844     0.82600
N174        N  0.29125623  0.23775996  0.28206887    -0.79900
C175        C  0.30335720  0.00989408  0.38640668     0.80100
N176        N  0.30581909  0.00504879  0.42285839    -0.78200
C177        C  0.28374717  0.46681405  0.44927657     0.82500
N178        N  0.27509491  0.44386384  0.42631461    -0.78200
C179        C  0.27419165  0.44929356  0.38970429     0.82600
N180        N  0.28130724  0.47793622  0.37596824    -0.79900
C181        C  0.01871952  0.20458813  0.32622252    -0.13500
C182        C  0.50820617  0.23148382  0.35536965     0.08700
C183        C  0.01890306  0.25252048  0.32853712    -0.13500
C184        C  0.05062094  0.26866401  0.32236757    -0.13500
C185        C  0.06683395  0.25296607  0.31819344     0.08700
C186        C  0.05040022  0.22070845  0.31993505    -0.13500
H187        H  0.51281475  0.19079468  0.35990207     0.12700
H188        H  0.51294001  0.27675208  0.34977760     0.12700
H189        H  0.06231570  0.29344526  0.32097933     0.12700
H190        H  0.06190186  0.20769359  0.31689620     0.12700
C191        C  0.27580478  0.22622867  0.16989310    -0.16600
C192        C  0.28872646  0.21470236  0.14846207    -0.31700
H193        H  0.26209078  0.23532020  0.15760335     0.12500
H194        H  0.30332796  0.20654457  0.16037408     0.13000
C195        C  0.24553333  0.47518136  0.99862739    -0.13500
C196        C  0.28986739  0.99577174  0.97428975     0.08700
C197        C  0.29139120  0.47500473  0.97996367    -0.13500
C198        C  0.27686030  0.44340728  0.98838175    -0.13500
C199        C  0.24653648  0.42734205  0.00203314     0.08700
C200        C  0.23094583  0.44351027  0.00684189    -0.13500
H201        H  0.24492341  0.99005191  0.96493122     0.12700
H202        H  0.33057187  0.99244391  0.98439888     0.12700
H203        H  0.28938738  0.43157542  0.98378447     0.12700
H204        H  0.20759178  0.43179235  0.01742638     0.12700
C205        C  0.29127610  0.48113678  0.51381303    -0.16600
C206        C  0.28078043  0.45940002  0.48940944    -0.31700
H207        H  0.30388420  0.50514757  0.50410062     0.12500
H208        H  0.26896079  0.43536220  0.49904575     0.13000
C209        C  0.01115772  0.20173982  0.82360552    -0.16600
C210        C  0.03446039  0.21187784  0.84688736    -0.31700
H211        H  0.98777512  0.19031640  0.83443208     0.12500
H212        H  0.05779549  0.22234310  0.83613289     0.13000
C213        C  0.30405515  0.22853850  0.65070887    -0.13500
C214        C  0.29067267  0.19726603  0.66180540     0.08700
C215        C  0.25889574  0.18030250  0.66883534    -0.13500
C216        C  0.24101206  0.19438906  0.66526061    -0.13500
C217        C  0.25445494  0.22578500  0.65445212     0.08700
C218        C  0.28620330  0.24256939  0.64698564    -0.13500
H219        H  0.32835003  0.24226872  0.64458271     0.12700
H220        H  0.24779605  0.15618370  0.67757157     0.12700
H221        H  0.21668088  0.18058848  0.67111944     0.12700
H222        H  0.29758766  0.26673545  0.63853967     0.12700
N223        N  0.22966456  0.86993391  0.61303221    -0.27400
N224        N  0.21253683  0.87652469  0.63373942    -0.35300
C225        C  0.22445574  0.90742430  0.63073086     0.00900
C226        C  0.24977232  0.92023820  0.60664221     0.07000
C227        C  0.25200851  0.89568102  0.59604826    -0.06100
H228        H  0.21485929  0.91949850  0.64393112     0.07600
H229        H  0.26902089  0.89646791  0.57743945     0.08800
Cu230      Cu  0.17241244  0.84139469  0.66217476     0.44200
Cu231      Cu  0.22532724  0.82737335  0.60903878     0.42000
Cu232      Cu  0.16024000  0.76420898  0.64757980     0.43900
N233        N  0.13268573  0.79932309  0.67996783    -0.34800
N234        N  0.12815062  0.77217197  0.67152559    -0.29100
C235        C  0.10087442  0.74992172  0.68527428    -0.05200
C236        C  0.08738509  0.76318952  0.70398315     0.07100
C237        C  0.10824956  0.79456387  0.70047287     0.00900
H238        H  0.09240216  0.72562043  0.68379155     0.08500
H239        H  0.10595135  0.81250699  0.71235982     0.07600
N240        N  0.19752851  0.76109671  0.63090603    -0.36200
N241        N  0.22222422  0.78508889  0.61613151    -0.28400
C242        C  0.24427298  0.77782668  0.61219208    -0.03700
C243        C  0.23286562  0.74759896  0.62534989     0.04900
C244        C  0.20301465  0.73773377  0.63684323     0.03000
H245        H  0.26727267  0.79389685  0.60216048     0.08100
H246        H  0.18709466  0.71594396  0.65074568     0.07000
N247        N  0.41765328  0.67238630  0.67888270    -0.27400
N248        N  0.41896555  0.64677354  0.67965124    -0.35300
C249        C  0.44680910  0.65304901  0.69140776     0.00900
C250        C  0.46386295  0.68409777  0.69743219     0.07000
C251        C  0.44441069  0.69538852  0.68962651    -0.06100
H252        H  0.45353254  0.63596182  0.69725899     0.07600
H253        H  0.44855729  0.71816580  0.69418729     0.08800
Cu254      Cu  0.38128559  0.60399534  0.66763779     0.44200
Cu255      Cu  0.37843840  0.67470721  0.66894438     0.42000
Cu256      Cu  0.30906717  0.60298060  0.65869419     0.43900
N257        N  0.33983790  0.56497474  0.65447100    -0.34800
N258        N  0.31344898  0.56463870  0.65305077    -0.29100
C259        C  0.29171094  0.53758310  0.64151234    -0.05200
C260        C  0.30470855  0.51970840  0.63526394     0.07100
C261        C  0.33540146  0.53804036  0.64319608     0.00900
H262        H  0.26879771  0.53246512  0.63473498     0.08500
H263        H  0.35354151  0.53293511  0.63870334     0.07600
N264        N  0.31082444  0.64502004  0.65719723    -0.36200
N265        N  0.33630284  0.67131568  0.66063058    -0.28400
C266        C  0.33012328  0.69435387  0.65680978    -0.03700
C267        C  0.29916592  0.68202596  0.65046016     0.04900
C268        C  0.28771622  0.65060355  0.65098006     0.03000
H269        H  0.34709783  0.71828677  0.65834804     0.08100
H270        H  0.26449201  0.63301933  0.64626247     0.07000
C271        C  0.05932286  0.74636440  0.72727678     0.80100
N272        N  0.03254298  0.72507957  0.71301840    -0.78200
C273        C  0.49154717  0.69933122  0.71919810     0.82500
N274        N  0.48854542  0.69600327  0.75618315    -0.78200
C275        C  0.03631389  0.73143505  0.78642194     0.82600
N276        N  0.06109828  0.74921501  0.76397922    -0.79900
C277        C  0.26968164  0.95221920  0.59183270     0.80100
N278        N  0.27799207  0.95712534  0.55573167    -0.78200
C279        C  0.29981265  0.98521025  0.54170147     0.82500
N280        N  0.29884437  0.49765223  0.57630526    -0.78200
C281        C  0.29148450  0.49299882  0.61258730     0.82600
N282        N  0.28374753  0.97582374  0.61423999    -0.79900
N283        N  0.31412099  0.65497931  0.01245858    -0.27400
N284        N  0.34146757  0.67880211  0.01781926    -0.35300
C285        C  0.33747687  0.69949456  0.03530172     0.00900
C286        C  0.30628217  0.68828421  0.04021036     0.07000
C287        C  0.29231898  0.66009927  0.02548314    -0.06100
H288        H  0.35586537  0.72095094  0.04408291     0.07600
H289        H  0.26804874  0.64370964  0.02593020     0.08800
Cu290      Cu  0.38289389  0.68178359  0.00044898     0.44200
Cu291      Cu  0.30616621  0.61420555  0.99258649     0.42000
Cu292      Cu  0.37125792  0.61275642  0.96002886     0.43900
N293        N  0.41829743  0.67796340  0.97494156    -0.34800
N294        N  0.41295434  0.65291307  0.95902259    -0.29100
C295        C  0.43880296  0.65754389  0.94259863    -0.05200
C296        C  0.46195136  0.68668423  0.94876914     0.07100
C297        C  0.44826506  0.69914998  0.96939707     0.00900
H298        H  0.44058588  0.64081795  0.92714572     0.08500
H299        H  0.45899977  0.72221251  0.97843895     0.07600
N300        N  0.32899163  0.57363427  0.96794817    -0.36200
N301        N  0.30464573  0.57409034  0.97998082    -0.28400
C302        C  0.28166329  0.54511065  0.98645094    -0.03100
C303        C  0.29211115  0.52527156  0.97824286     0.04900
C304        C  0.32227692  0.54439143  0.96633387     0.03000
H305        H  0.25966148  0.53917547  0.99830555     0.08100
H306        H  0.33880282  0.53782843  0.95887211     0.07000
N307        N  0.12671898  0.76637775  0.96977327    -0.27400
N308        N  0.12319860  0.73920084  0.98034593    -0.35300
C309        C  0.09412135  0.71757416  0.97350853     0.00900
C310        C  0.07912198  0.73214338  0.95791604     0.07000
C311        C  0.10061346  0.76288889  0.95578620    -0.06100
H312        H  0.08493525  0.69312024  0.97828630     0.07600
H313        H  0.09764698  0.78149285  0.94432721     0.08800
Cu314      Cu  0.15971271  0.73413099  0.00160656     0.44200
Cu315      Cu  0.16635604  0.80790509  0.97329896     0.42000
Cu316      Cu  0.23142900  0.80823095  0.00850470     0.43900
N317        N  0.20130485  0.73880301  0.02144247    -0.34800
N318        N  0.22656843  0.76571292  0.02368204    -0.29100
C319        C  0.24869326  0.76143825  0.03845773    -0.05200
C320        C  0.23727586  0.73047403  0.04581310     0.07100
C321        C  0.20710959  0.71664382  0.03482448     0.00900
H322        H  0.27141698  0.77972225  0.04404781     0.08500
H323        H  0.19046564  0.69239495  0.03718227     0.07600
N324        N  0.23144130  0.84838658  0.99260754    -0.36200
N325        N  0.20692744  0.84801202  0.97937175    -0.28400
C326        C  0.21296411  0.87694407  0.97206414    -0.03700
C327        C  0.24292047  0.89678545  0.98121587     0.04900
C328        C  0.25393706  0.87770826  0.99412577     0.03000
H329        H  0.19655775  0.88287936  0.96102573     0.08100
H330        H  0.27636996  0.88447788  0.00452097     0.07000
C331        C  0.04852156  0.71884961  0.94205199     0.80100
N332        N  0.02298525  0.70770645  0.96407134    -0.78200
C333        C  0.49340001  0.70129712  0.93321010     0.82500
N334        N  0.49767478  0.70248107  0.89640765    -0.78200
C335        C  0.01910021  0.71608578  0.89051215     0.82600
N336        N  0.04646903  0.72338407  0.90542016    -0.79900
C337        C  0.29068696  0.70089539  0.06103719     0.80100
N338        N  0.29404247  0.70258580  0.09775209    -0.78200
C339        C  0.27727376  0.71095730  0.11807248     0.82500
N340        N  0.25759614  0.71848905  0.10117858    -0.78200
C341        C  0.25376268  0.71653786  0.06448386     0.82600
N342        N  0.27016061  0.70741535  0.04454999    -0.79900
N343        N  0.33810917  0.58330621  0.37455802    -0.27400
N344        N  0.31274266  0.57851091  0.35826781    -0.35300
C345        C  0.29189454  0.54817163  0.36310449     0.00900
C346        C  0.30490624  0.53367071  0.38371553     0.07000
C347        C  0.33400132  0.55679285  0.39055821    -0.06100
H348        H  0.26873605  0.53765134  0.35351920     0.07600
H349        H  0.35115187  0.55448435  0.40601581     0.08800
Cu350      Cu  0.30847639  0.61525289  0.33298267     0.44200
Cu351      Cu  0.37843584  0.62502940  0.37391185     0.42000
Cu352      Cu  0.37695775  0.69153250  0.34027147     0.43900
N353        N  0.31132111  0.65772288  0.31597139    -0.34800
N354        N  0.33551118  0.68480332  0.32127502    -0.29100
C355        C  0.33008165  0.70727710  0.30892685    -0.05200
C356        C  0.30132197  0.69407206  0.29452654     0.07100
C357        C  0.29008537  0.66262467  0.29910257     0.00900
H358        H  0.34653234  0.73152848  0.30881436     0.08500
H359        H  0.26813024  0.64467667  0.29067355     0.07600
N360        N  0.41720525  0.69209888  0.35301706    -0.36200
N361        N  0.41777925  0.66733933  0.36557597    -0.28400
C362        C  0.44704511  0.67409415  0.36850259    -0.03700
C363        C  0.46602288  0.70475532  0.35705433     0.04900
C364        C  0.44606375  0.71534354  0.34750976     0.03000
H365        H  0.45377410  0.65746837  0.37706039     0.08100
H366        H  0.45183855  0.73790629  0.33609065     0.07000
N367        N  0.23552438  0.88702842  0.33736676    -0.27400
N368        N  0.26036036  0.88446524  0.33988498    -0.35300
C369        C  0.28312296  0.91070885  0.35214840     0.00900
C370        C  0.27224071  0.93081557  0.35660755     0.07000
C371        C  0.24196648  0.91486455  0.34721037    -0.06100
H372        H  0.30537007  0.91417104  0.35961514     0.07600
H373        H  0.22500996  0.92172037  0.35101661     0.08800
Cu374      Cu  0.26113445  0.84405881  0.32989219     0.44200
Cu375      Cu  0.19202092  0.85096103  0.33002055     0.42000
Cu376      Cu  0.18574603  0.77792388  0.32212419     0.43900
N377        N  0.25363740  0.80103644  0.31528766    -0.34800
N378        N  0.22580877  0.77735116  0.31219791    -0.29100
C379        C  0.22779936  0.75402539  0.29912992    -0.05200
C380        C  0.25828242  0.76296300  0.29417371     0.07100
C381        C  0.27414279  0.79304039  0.30438196     0.00900
H382        H  0.20836088  0.73252885  0.29215022     0.08500
H383        H  0.29859635  0.80847894  0.30199623     0.07600
N384        N  0.14831544  0.78341999  0.33078887    -0.36200
N385        N  0.15057386  0.81049317  0.33311436    -0.28400
C386        C  0.12263255  0.80659006  0.33979985    -0.03700
C387        C  0.10158957  0.77540165  0.34178567     0.04900
C388        C  0.11885877  0.76148053  0.33582163     0.03000
H389        H  0.11826441  0.82517147  0.34379805     0.08100
H390        H  0.11083987  0.73721377  0.33533350     0.07000
C391        C  0.27000645  0.74613966  0.27434553     0.80100
N392        N  0.26469276  0.74268279  0.23810767    -0.78200
C393        C  0.27186821  0.72433687  0.21981808     0.82500
N394        N  0.28282508  0.70784954  0.23854144    -0.78200
C395        C  0.28761382  0.71056468  0.27502337     0.82600
N396        N  0.28184340  0.73030190  0.29271298    -0.79900
C397        C  0.29114577  0.50141917  0.39861809     0.80100
N398        N  0.29264318  0.49570845  0.43511562    -0.78200
C399        C  0.29699241  0.97641803  0.43775289     0.82500
N400        N  0.28737931  0.95288336  0.41558303    -0.78200
C401        C  0.28550571  0.95749394  0.37902969     0.82600
N402        N  0.29257969  0.98588101  0.36452935    -0.79900
C403        C  0.01926726  0.71390634  0.36356743    -0.13500
C404        C  0.49999493  0.72171821  0.35279244     0.08700
C405        C  0.02153919  0.76300768  0.35610150    -0.13500
C406        C  0.05313526  0.77743871  0.34945276    -0.13500
C407        C  0.06813148  0.76022878  0.34946011     0.08700
C408        C  0.05078982  0.72828869  0.35677894    -0.13500
H409        H  0.50591090  0.68356478  0.37264544     0.12700
H410        H  0.50371014  0.76473568  0.33192458     0.12700
H411        H  0.06563348  0.80205927  0.34386945     0.12700
H412        H  0.06142313  0.71422147  0.35731513     0.12700
C413        C  0.26773764  0.72291114  0.17979011    -0.16600
C414        C  0.28053249  0.71134330  0.15829484    -0.31700
H415        H  0.25477324  0.73287725  0.16752069     0.12500
H416        H  0.29449655  0.70247334  0.17039927     0.13000
C417        C  0.25809899  0.97869000  0.97009335    -0.13500
C418        C  0.27603313  0.49139641  0.98529704     0.08700
C419        C  0.30610778  0.98005252  0.98066158    -0.13500
C420        C  0.29093256  0.94800138  0.98291370    -0.13500
C421        C  0.25913780  0.93086054  0.97865869     0.08700
C422        C  0.24293215  0.94663101  0.97213467    -0.13500
H423        H  0.23282004  0.48682335  0.00300078     0.12700
H424        H  0.31475304  0.48642928  0.96961254     0.12700
H425        H  0.30423579  0.93676722  0.98780866     0.12700
H426        H  0.21842406  0.93432617  0.96892808     0.12700
C427        C  0.30564290  0.99191502  0.50172560    -0.16600
C428        C  0.29436391  0.96977349  0.47787449    -0.31700
H429        H  0.31894644  0.01580147  0.49166440     0.12500
H430        H  0.28199239  0.94585335  0.48802171     0.13000
C431        C  0.03981186  0.73210380  0.82661130    -0.16600
C432        C  0.01578430  0.71768126  0.85037654    -0.31700
H433        H  0.06285511  0.74443121  0.83685577     0.12500
H434        H  0.99269735  0.70637882  0.84012369     0.13000
C435        C  0.29799926  0.73072725  0.63567047    -0.13500
C436        C  0.28221509  0.69878938  0.64348853     0.08700
C437        C  0.25005800  0.68301181  0.64444627    -0.13500
C438        C  0.23408500  0.69880165  0.63808283    -0.13500
C439        C  0.24986836  0.73074718  0.63053133     0.08700
C440        C  0.28202001  0.74649798  0.62917278    -0.13500
H441        H  0.32272461  0.74366673  0.63438244     0.12700
H442        H  0.23708006  0.65847108  0.65051431     0.12700
H443        H  0.20934761  0.68588509  0.63907525     0.12700
H444        H  0.29499455  0.77111925  0.62370808     0.12700
N445        N  0.73522715  0.36925972  0.63031651    -0.27400
N446        N  0.71507658  0.37357922  0.64821140    -0.35300
C447        C  0.72486044  0.40405726  0.64580015     0.00900
C448        C  0.75213317  0.41909926  0.62518434     0.07000
C449        C  0.75765629  0.39621954  0.61575606    -0.06100
H450        H  0.71244115  0.41430588  0.65674998     0.07600
H451        H  0.77662462  0.39892991  0.59911951     0.08800
Cu452      Cu  0.67410941  0.33641774  0.67200666     0.44200
Cu453      Cu  0.73341658  0.32780990  0.62557684     0.42000
Cu454      Cu  0.66678348  0.26141781  0.65665092     0.43900
N455        N  0.63531341  0.29332425  0.68778580    -0.34800
N456        N  0.63286627  0.26683928  0.68007814    -0.29100
C457        C  0.60548755  0.24359770  0.69207183    -0.05200
C458        C  0.58980258  0.25561578  0.70873294     0.07100
C459        C  0.60927546  0.28722231  0.70569162     0.00900
H460        H  0.59786010  0.21957172  0.68954462     0.08500
H461        H  0.60466829  0.30444778  0.71533579     0.07600
N462        N  0.70503258  0.26026175  0.63965025    -0.36200
N463        N  0.73020695  0.28533402  0.62792488    -0.28400
C464        C  0.75223209  0.27839241  0.62193810    -0.03700
C465        C  0.74032009  0.24723074  0.63048052     0.04900
C466        C  0.71020038  0.23653293  0.64156126     0.03000
H467        H  0.77542712  0.29513382  0.61329645     0.08100
H468        H  0.69363560  0.21361109  0.65206544     0.07000
N469        N  0.92244178  0.16836761  0.67847094    -0.27400
N470        N  0.92275353  0.14220593  0.68110385    -0.35300
C471        C  0.94917367  0.14738794  0.69646350     0.00900
C472        C  0.96635277  0.17827524  0.70301829     0.07000
C473        C  0.94855924  0.19071421  0.69150862    -0.06100
H474        H  0.95489168  0.12975614  0.70378181     0.07600
H475        H  0.95333631  0.21390585  0.69464493     0.08800
Cu476      Cu  0.88564846  0.10019302  0.66640008     0.44200
Cu477      Cu  0.88485440  0.17221921  0.66325691     0.42000
Cu478      Cu  0.81463772  0.10087759  0.65658681     0.43900
N479        N  0.84411117  0.06185363  0.65258170    -0.34800
N480        N  0.81805798  0.06215686  0.65112058    -0.29100
C481        C  0.79597274  0.03543928  0.63936817    -0.05200
C482        C  0.80836940  0.01706578  0.63314960     0.07100
C483        C  0.83911225  0.03477928  0.64116604     0.00900
H484        H  0.77329949  0.03094558  0.63233627     0.08500
H485        H  0.85691156  0.02921070  0.63656673     0.07600
N486        N  0.81716804  0.14310740  0.65243817    -0.36200
N487        N  0.84300938  0.16936782  0.65407798    -0.28400
C488        C  0.83712420  0.19254660  0.64928562    -0.03700
C489        C  0.80597881  0.18029796  0.64420610     0.04900
C490        C  0.79413353  0.14880097  0.64642845     0.03000
H491        H  0.85434948  0.21648664  0.64989243     0.08100
H492        H  0.77058214  0.13114359  0.64353681     0.07000
C493        C  0.55887481  0.23780127  0.72562356     0.80100
N494        N  0.53446355  0.22145326  0.70438714    -0.78200
C495        C  0.99387034  0.19337986  0.72511279     0.82500
N496        N  0.99095283  0.18980260  0.76214934    -0.78200
C497        C  0.52652665  0.21718850  0.77834946     0.82600
N498        N  0.55491573  0.23533111  0.76264704    -0.79900
C499        C  0.77014608  0.45147125  0.61112534     0.80100
N500        N  0.77761266  0.45756200  0.57482430    -0.78200
C501        C  0.79765846  0.48647835  0.56119993     0.82500
N502        N  0.80090078  0.99645441  0.57331281    -0.78200
C503        C  0.79481863  0.99090767  0.60983512     0.82600
N504        N  0.78350239  0.47462087  0.63424057    -0.79900
N505        N  0.81931378  0.15599698  0.02060072    -0.27400
N506        N  0.84638481  0.18001145  0.02652940    -0.35300
C507        C  0.84164071  0.19995231  0.04475246     0.00900
C508        C  0.81025252  0.18811671  0.04951240     0.07000
C509        C  0.79699250  0.16030732  0.03383154    -0.06100
H510        H  0.85964703  0.22140075  0.05405892     0.07600
H511        H  0.77283206  0.14357728  0.03377379     0.08800
Cu512      Cu  0.88837642  0.18391530  0.00849103     0.44200
Cu513      Cu  0.81264574  0.11585871  0.99991924     0.42000
Cu514      Cu  0.87721693  0.11525683  0.96566607     0.43900
N515        N  0.92393557  0.18035842  0.98210151    -0.34800
N516        N  0.91843332  0.15556940  0.96541431    -0.29100
C517        C  0.94410003  0.16021324  0.94860794    -0.05200
C518        C  0.96746773  0.18907203  0.95519948     0.07100
C519        C  0.95402949  0.20140355  0.97662718     0.00900
H520        H  0.94560419  0.14362550  0.93256912     0.08500
H521        H  0.96499724  0.22430279  0.98617113     0.07600
N522        N  0.83552159  0.07575927  0.97346001    -0.36200
N523        N  0.81124271  0.07595966  0.98624686    -0.28400
C524        C  0.78809476  0.04693391  0.99124419    -0.03100
C525        C  0.79834822  0.02740157  0.98113116     0.04900
C526        C  0.82862577  0.04663890  0.96991870     0.03000
H527        H  0.76590871  0.04060402  0.00293618     0.08100
H528        H  0.84479423  0.04009953  0.96072741     0.07000
N529        N  0.62398563  0.26384294  0.99711742    -0.27400
N530        N  0.62739482  0.24019882  0.99001780    -0.35300
C531        C  0.60318741  0.22096353  0.97058117     0.00900
C532        C  0.58355846  0.23280053  0.96627310     0.07000
C533        C  0.59759538  0.25993205  0.98338224    -0.06100
H534        H  0.60043999  0.20031367  0.95953069     0.07600
H535        H  0.59030293  0.27681192  0.98347378     0.08800
Cu536      Cu  0.66571022  0.23600389  0.00653571     0.44200
Cu537      Cu  0.65701892  0.30392956  0.01834545     0.42000
Cu538      Cu  0.72476335  0.30527927  0.04444066     0.43900
N539        N  0.70591314  0.23975066  0.03021572    -0.34800
N540        N  0.72643869  0.26531936  0.04452059    -0.29100
C541        C  0.74817654  0.26108664  0.06033464    -0.05200
C542        C  0.74178720  0.23159496  0.05562945     0.07100
C543        C  0.71467381  0.21846056  0.03646536     0.00900
H544        H  0.76695175  0.27813215  0.07521843     0.08500
H545        H  0.70152343  0.19485118  0.02944567     0.07600
N546        N  0.72127909  0.34428085  0.03998501    -0.36200
N547        N  0.69598078  0.34405425  0.03032240    -0.28400
C548        C  0.70157092  0.37312439  0.02654425    -0.03700
C549        C  0.73207192  0.39268538  0.03421356     0.04900
C550        C  0.74368604  0.37333175  0.04277860     0.03000
H551        H  0.68491905  0.37940738  0.01737701     0.08100
H552        H  0.76695273  0.37965006  0.04917832     0.07000
C553        C  0.55703255  0.22284673  0.94241860     0.80100
N554        N  0.52915873  0.21600735  0.95642048    -0.78200
C555        C  0.99869694  0.20329509  0.93888098     0.82500
N556        N  0.00197292  0.20144751  0.90243372    -0.78200
C557        C  0.53797175  0.21824329  0.88278773     0.82600
N558        N  0.56130180  0.22408809  0.90563509    -0.79900
C559        C  0.79399618  0.20013449  0.07055150     0.80100
N560        N  0.79879514  0.20365692  0.10696152    -0.78200
C561        C  0.78326240  0.21367587  0.12698340     0.82500
N562        N  0.76359468  0.22106263  0.11006021    -0.78200
C563        C  0.75814491  0.21725921  0.07388327     0.82600
N564        N  0.77305952  0.20626915  0.05420556    -0.79900
N565        N  0.83999518  0.08361117  0.36652489    -0.27400
N566        N  0.81340101  0.07993679  0.35541131    -0.35300
C567        C  0.79170479  0.05028305  0.36318721     0.00900
C568        C  0.80546730  0.03506700  0.38031351     0.07000
C569        C  0.83590374  0.05696768  0.38207308    -0.06100
H570        H  0.76764097  0.04073987  0.35779000     0.07600
H571        H  0.85394435  0.05373769  0.39366832     0.08800
Cu572      Cu  0.80838549  0.11688551  0.33327315     0.44200
Cu573      Cu  0.88173028  0.12388471  0.36007633     0.42000
Cu574      Cu  0.87957972  0.19096172  0.33573410     0.43900
N575        N  0.81200117  0.16012249  0.32067277    -0.34800
N576        N  0.83751299  0.18643519  0.32457607    -0.29100
C577        C  0.83294458  0.20994323  0.31492831    -0.05200
C578        C  0.80326139  0.19825658  0.30398469     0.07100
C579        C  0.79064364  0.16656525  0.30743445     0.00900
H580        H  0.85072629  0.23380348  0.31313742     0.08500
H581        H  0.76798877  0.14954054  0.29967387     0.07600
N582        N  0.92028646  0.19096122  0.34038732    -0.36200
N583        N  0.92121832  0.16572294  0.34926517    -0.28400
C584        C  0.95049071  0.17216285  0.34786612    -0.03700
C585        C  0.96895289  0.20312062  0.33747311     0.04900
C586        C  0.94885140  0.21424721  0.33307223     0.03000
H587        H  0.95761200  0.15539606  0.35352190     0.08100
H588        H  0.95431921  0.23726418  0.32397891     0.07000
N589        N  0.73872803  0.39233950  0.34989005    -0.27400
N590        N  0.76389874  0.39038303  0.35298564    -0.35300
C591        C  0.78531454  0.41577879  0.36841877     0.00900
C592        C  0.77320566  0.43468678  0.37428800     0.07000
C593        C  0.74365884  0.41894559  0.36238206    -0.06100
H594        H  0.80755188  0.41955264  0.37644553     0.07600
H595        H  0.72609690  0.42506082  0.36566623     0.08800
Cu596      Cu  0.76700466  0.35186785  0.33857957     0.44200
Cu597      Cu  0.69621631  0.35682434  0.33745811     0.42000
Cu598      Cu  0.69269957  0.28606854  0.32494818     0.43900
N599        N  0.76083193  0.30976598  0.32137411    -0.34800
N600        N  0.73322950  0.28614408  0.31682441    -0.29100
C601        C  0.73570534  0.26315178  0.30362048    -0.05200
C602        C  0.76626149  0.27218710  0.29979146     0.07100
C603        C  0.78173153  0.30203749  0.31103959     0.00900
H604        H  0.71653546  0.24174912  0.29590715     0.08500
H605        H  0.80622947  0.31739229  0.31015949     0.07600
N606        N  0.65406898  0.28977504  0.33162674    -0.36200
N607        N  0.65523478  0.31615199  0.33572763    -0.28400
C608        C  0.62665219  0.31107608  0.34086908    -0.03700
C609        C  0.60639284  0.27981850  0.33996925     0.04900
C610        C  0.62476202  0.26712924  0.33389496     0.03000
H611        H  0.62126855  0.32879469  0.34600341     0.08100
H612        H  0.61760333  0.24320459  0.33163757     0.07000
C613        C  0.77832356  0.25510711  0.28099058     0.80100
N614        N  0.77448414  0.25222143  0.24439232    -0.78200
C615        C  0.78017395  0.23232503  0.22716191     0.82500
N616        N  0.78817775  0.21397018  0.24713680    -0.78200
C617        C  0.79139980  0.21605490  0.28382203     0.82600
N618        N  0.78707958  0.23709993  0.30064163    -0.79900
C619        C  0.79152754  0.00296614  0.39527814     0.80100
N620        N  0.79236702  0.99702697  0.43185874    -0.78200
C621        C  0.79538205  0.47904577  0.45678307     0.82500
N622        N  0.78669994  0.45588213  0.43415164    -0.78200
C623        C  0.78518743  0.46087315  0.39756701     0.82600
N624        N  0.79153885  0.48918163  0.38357120    -0.79900
C625        C  0.52448399  0.21553418  0.35617613    -0.13500
C626        C  0.00259232  0.22027900  0.33075102     0.08700
C627        C  0.52462863  0.26364868  0.35026933    -0.13500
C628        C  0.55648942  0.27939880  0.34548672    -0.13500
C629        C  0.57265511  0.26333734  0.34566040     0.08700
C630        C  0.55623813  0.23123001  0.35133074    -0.13500
H631        H  0.00692412  0.17979625  0.32729296     0.12700
H632        H  0.00728977  0.26540896  0.33202280     0.12700
H633        H  0.56830572  0.30412105  0.34117064     0.12700
H634        H  0.56778832  0.21801039  0.35209094     0.12700
C635        C  0.77659079  0.23025762  0.18710170    -0.16600
C636        C  0.78745183  0.21595723  0.16700738    -0.31700
H637        H  0.76517435  0.24144571  0.17368349     0.12500
H638        H  0.80003232  0.20590289  0.18013305     0.13000
C639        C  0.75147700  0.47557795  0.01620960    -0.13500
C640        C  0.78131094  0.99341517  0.98442722     0.08700
C641        C  0.79761396  0.47484812  0.03254754    -0.13500
C642        C  0.78097037  0.44290310  0.03696443    -0.13500
C643        C  0.74937527  0.42676233  0.03078105     0.08700
C644        C  0.73479405  0.44354264  0.02053873    -0.13500
H645        H  0.73655729  0.98926782  0.98974220     0.12700
H646        H  0.82148363  0.98841670  0.98000989     0.12700
H647        H  0.79316290  0.43104259  0.04506142     0.12700
H648        H  0.71053855  0.43207215  0.01559169     0.12700
C649        C  0.80294329  0.49388267  0.52120247    -0.16600
C650        C  0.79279943  0.47205306  0.49689233    -0.31700
H651        H  0.81506878  0.51792769  0.51156148     0.12500
H652        H  0.78155559  0.44804499  0.50664870     0.13000
C653        C  0.52125645  0.21383031  0.81852956    -0.16600
C654        C  0.54381695  0.22191280  0.84262756    -0.31700
H655        H  0.49771404  0.20342813  0.82853609     0.12500
H656        H  0.56725109  0.23124509  0.83271328     0.13000
C657        C  0.80487671  0.22919584  0.63171566    -0.13500
C658        C  0.78902903  0.19717328  0.63854150     0.08700
C659        C  0.75688024  0.18158317  0.64069419    -0.13500
C660        C  0.74104420  0.19773444  0.63726023    -0.13500
C661        C  0.75696516  0.22986798  0.63156488     0.08700
C662        C  0.78905374  0.24532919  0.62826096    -0.13500
H663        H  0.82957493  0.24200217  0.62932207     0.12700
H664        H  0.74380499  0.15693024  0.64579689     0.12700
H665        H  0.71632507  0.18494988  0.63945029     0.12700
H666        H  0.80219457  0.27002751  0.62380487     0.12700
N667        N  0.72371455  0.85731745  0.62740178    -0.27400
N668        N  0.70136717  0.86222188  0.63731146    -0.35300
C669        C  0.71101264  0.89242561  0.63038182     0.00900
C670        C  0.74058008  0.90679538  0.61532265     0.07000
C671        C  0.74761344  0.88374118  0.61362160    -0.06100
H672        H  0.69732985  0.90301460  0.63514697     0.07600
H673        H  0.76878611  0.88603732  0.60334293     0.08800
Cu674      Cu  0.65864585  0.82652264  0.65923286     0.44200
Cu675      Cu  0.72308790  0.81595257  0.63492434     0.42000
Cu676      Cu  0.65903945  0.75442308  0.68135975     0.43900
N677        N  0.62058250  0.78550785  0.68196563    -0.34800
N678        N  0.62169561  0.76009932  0.69000004    -0.29100
C679        C  0.59483640  0.73836520  0.70531953    -0.05200
C680        C  0.57545093  0.75013689  0.70690989     0.07100
C681        C  0.59242326  0.78016065  0.69196964     0.00900
H682        H  0.58990354  0.71562209  0.71502322     0.08500
H683        H  0.58508945  0.79701017  0.68937762     0.07600
N684        N  0.69847635  0.75288817  0.67067691    -0.36200
N685        N  0.72232742  0.77586637  0.65297555    -0.28400
C686        C  0.74511139  0.76937688  0.65168762    -0.03700
C687        C  0.73511500  0.74076162  0.66946958     0.04900
C688        C  0.70529293  0.73096752  0.68104421     0.03000
H689        H  0.76743105  0.78466713  0.63920998     0.08100
H690        H  0.69000802  0.71000121  0.69689908     0.07000
N691        N  0.92842552  0.67560149  0.70765137    -0.27400
N692        N  0.93310056  0.65314966  0.69871373    -0.35300
C693        C  0.96259624  0.66153067  0.70557843     0.00900
C694        C  0.97671393  0.69048016  0.71940582     0.07000
C695        C  0.95423652  0.69835498  0.72055141    -0.06100
H696        H  0.97263316  0.64718935  0.70223263     0.07600
H697        H  0.95627110  0.71894341  0.73091147     0.08800
Cu698      Cu  0.89728155  0.61141642  0.68052462     0.44200
Cu699      Cu  0.88724885  0.67509499  0.70445813     0.42000
Cu700      Cu  0.82120299  0.60404565  0.69154332     0.43900
N701        N  0.85542745  0.57264810  0.66729610    -0.34800
N702        N  0.82823477  0.56964220  0.67402349    -0.29100
C703        C  0.80626328  0.54323616  0.66136857    -0.05200
C704        C  0.81994411  0.52878879  0.64546549     0.07100
C705        C  0.85115980  0.54822149  0.64931259     0.00900
H706        H  0.78226805  0.53651088  0.66070840     0.08500
H707        H  0.86945297  0.54548818  0.63824199     0.07600
N708        N  0.81942329  0.64381495  0.69697823    -0.36200
N709        N  0.84424619  0.67047857  0.70103849    -0.28400
C710        C  0.83668100  0.69257726  0.70010008    -0.03700
C711        C  0.80542189  0.67921551  0.69501657     0.04900
C712        C  0.79528027  0.64815497  0.69331446     0.03000
H713        H  0.85299525  0.71667862  0.70205866     0.08100
H714        H  0.77236887  0.63019172  0.68793841     0.07000
C715        C  0.54444623  0.73403668  0.72397514     0.80100
N716        N  0.51949124  0.71869870  0.70304787    -0.78200
C717        C  0.00726346  0.70795318  0.73512726     0.82500
N718        N  0.00927014  0.71150036  0.77169876    -0.78200
C719        C  0.51316843  0.71107666  0.77732823     0.82600
N720        N  0.54122101  0.72974107  0.76109618    -0.79900
C721        C  0.75997571  0.93885763  0.60064026     0.80100
N722        N  0.76695803  0.94465052  0.56416525    -0.78200
C723        C  0.78682857  0.97361156  0.55027090     0.82500
N724        N  0.81164075  0.50919236  0.58453338    -0.78200
C725        C  0.80498907  0.50337661  0.62103375     0.82600
N726        N  0.77366994  0.96220259  0.62347553    -0.79900
N727        N  0.81526443  0.65632473  0.01499216    -0.27400
N728        N  0.84140029  0.68259974  0.01495177    -0.35300
C729        C  0.83552376  0.70403075  0.02693906     0.00900
C730        C  0.80423968  0.69061284  0.03394673     0.07000
C731        C  0.79228839  0.66036449  0.02629728    -0.06100
H732        H  0.85289350  0.72714191  0.03236048     0.07600
H733        H  0.76905580  0.64196200  0.03192192     0.08800
Cu734      Cu  0.88396545  0.68622917  0.00264988     0.44200
Cu735      Cu  0.81209974  0.61455080  0.00851226     0.42000
Cu736      Cu  0.88214527  0.61271402  0.00584828     0.43900
N737        N  0.92223893  0.68131248  0.99135067    -0.34800
N738        N  0.92150919  0.65463967  0.99433192    -0.29100
C739        C  0.94871907  0.65862793  0.98315380    -0.05200
C740        C  0.96770771  0.68920352  0.97247026     0.07100
C741        C  0.95002027  0.70284503  0.97753580     0.00900
H742        H  0.95337066  0.64011592  0.97983478     0.08500
H743        H  0.95628404  0.72631970  0.96959780     0.07600
N744        N  0.83932535  0.57355479  0.01093654    -0.36200
N745        N  0.81359400  0.57439961  0.01124298    -0.28400
C746        C  0.78978625  0.54564945  0.01500314    -0.03100
C747        C  0.80099731  0.52551169  0.01710858     0.04900
C748        C  0.83259134  0.54412600  0.01434875     0.03000
H749        H  0.76614215  0.54003661  0.01680596     0.08100
H750        H  0.84954755  0.53697186  0.01465703     0.07000
N751        N  0.61642467  0.76426015  0.98753918    -0.27400
N752        N  0.61631239  0.73788171  0.98873520    -0.35300
C753        C  0.59006569  0.71679423  0.97406656     0.00900
C754        C  0.57289822  0.73056888  0.96400925     0.07000
C755        C  0.59049382  0.76061289  0.97269777    -0.06100
H756        H  0.58453825  0.69359243  0.96942474     0.07600
H757        H  0.58581223  0.77908722  0.96625268     0.08800
Cu758      Cu  0.65368949  0.73320750  0.00731548     0.44200
Cu759      Cu  0.65344018  0.80597891  0.99902003     0.42000
Cu760      Cu  0.72299995  0.80686825  0.01636126     0.43900
N761        N  0.69594205  0.73801423  0.02442689    -0.34800
N762        N  0.72079154  0.76517161  0.02675375    -0.29100
C763        C  0.74394391  0.76148826  0.03901535    -0.05200
C764        C  0.73361475  0.73058983  0.04465257     0.07100
C765        C  0.70297437  0.71619197  0.03541516     0.00900
H766        H  0.76651844  0.78010168  0.04449795     0.08500
H767        H  0.68685201  0.69180801  0.03753901     0.07600
N768        N  0.72065768  0.84640792  0.00786930    -0.36200
N769        N  0.69472660  0.84614909  0.00193641    -0.28400
C770        C  0.70055181  0.87516783  0.99624606    -0.03700
C771        C  0.73181499  0.89474320  0.99871628     0.04900
C772        C  0.74376181  0.87555601  0.00625180     0.03000
H773        H  0.68330817  0.88134853  0.98975950     0.08100
H774        H  0.76747140  0.88209654  0.01008131     0.07000
C775        C  0.54599483  0.71888162  0.94073820     0.80100
N776        N  0.51774057  0.70991473  0.95535198    -0.78200
C777        C  0.99574786  0.70157720  0.94943361     0.82500
N778        N  0.99393816  0.70548625  0.91272742    -0.78200
C779        C  0.52610737  0.71300800  0.88147307     0.82600
N780        N  0.55011176  0.72091478  0.90383973    -0.79900
C781        C  0.78846586  0.70241964  0.05577745     0.80100
N782        N  0.79337589  0.70476383  0.09218767    -0.78200
C783        C  0.77743874  0.71333578  0.11361156     0.82500
N784        N  0.75678527  0.72015067  0.09814906    -0.78200
C785        C  0.75117476  0.71728151  0.06184583     0.82600
N786        N  0.76698309  0.70821434  0.04070299    -0.79900
N787        N  0.84469039  0.59477127  0.38295078    -0.27400
N788        N  0.82017951  0.58841222  0.36370363    -0.35300
C789        C  0.80079016  0.55769281  0.36765778     0.00900
C790        C  0.81390361  0.54473656  0.39077444     0.07000
C791        C  0.84148862  0.56899833  0.39990831    -0.06100
H792        H  0.77848659  0.54585416  0.35574003     0.07600
H793        H  0.85828604  0.56800853  0.41753942     0.08800
Cu794      Cu  0.81500096  0.62353047  0.33544379     0.44200
Cu795      Cu  0.88309618  0.63720205  0.38510208     0.42000
Cu796      Cu  0.88206612  0.70099920  0.34433275     0.43900
N797        N  0.81794486  0.66530659  0.31496696    -0.34800
N798        N  0.84158657  0.69273107  0.32041434    -0.29100
C799        C  0.83622598  0.71465376  0.30575371    -0.05200
C800        C  0.80814536  0.70074421  0.28965897     0.07100
C801        C  0.79713314  0.66942970  0.29580665     0.00900
H802        H  0.85207214  0.73903213  0.30598629     0.08500
H803        H  0.77541061  0.65105564  0.28742283     0.07600
N804        N  0.92211470  0.70336949  0.36225945    -0.36200
N805        N  0.92224335  0.67913771  0.37762737    -0.28400
C806        C  0.95124917  0.68559622  0.38197094    -0.03700
C807        C  0.97056492  0.71553345  0.36848546     0.04900
C808        C  0.95118248  0.72616335  0.35642960     0.03000
H809        H  0.95760497  0.66909473  0.39239087     0.08100
H810        H  0.95762155  0.74797105  0.34203534     0.07000
N811        N  0.72964136  0.88268093  0.33825747    -0.27400
N812        N  0.75471105  0.88072402  0.34253215    -0.35300
C813        C  0.77596927  0.90633181  0.35764995     0.00900
C814        C  0.76389750  0.92543473  0.36213907     0.07000
C815        C  0.73447827  0.90953544  0.34980672    -0.06100
H816        H  0.79793067  0.90999669  0.36674036     0.07600
H817        H  0.71685294  0.91563953  0.35247264     0.08800
Cu818      Cu  0.75767707  0.84189284  0.33048716     0.44200
Cu819      Cu  0.68735377  0.84664803  0.32591033     0.42000
Cu820      Cu  0.68372000  0.77566802  0.31387670     0.43900
N821        N  0.75218122  0.80036320  0.31313805    -0.34800
N822        N  0.72501146  0.77690025  0.30640664    -0.29100
C823        C  0.72860895  0.75489908  0.29218347    -0.05200
C824        C  0.75940685  0.76440217  0.29035248     0.07100
C825        C  0.77383156  0.79348013  0.30361201     0.00900
H826        H  0.71013604  0.73395427  0.28239931     0.08500
H827        H  0.79822510  0.80918165  0.30407025     0.07600
N828        N  0.64508235  0.77911558  0.32287340    -0.36200
N829        N  0.64636798  0.80566919  0.32616422    -0.28400
C830        C  0.61797961  0.80067290  0.33275345    -0.03700
C831        C  0.59778669  0.76933193  0.33392702     0.04900
C832        C  0.61585864  0.75640968  0.32750258     0.03000
H833        H  0.61264915  0.81849043  0.33763584     0.08100
H834        H  0.60840456  0.73229278  0.32637081     0.07000
C835        C  0.77303607  0.74949500  0.27017357     0.80100
N836        N  0.76739592  0.74569240  0.23408435    -0.78200
C837        C  0.77585732  0.72852571  0.21541032     0.82500
N838        N  0.78853277  0.71342175  0.23365759    -0.78200
C839        C  0.79373062  0.71651497  0.27007148     0.82600
N840        N  0.78661917  0.73518404  0.28808043    -0.79900
C841        C  0.80143434  0.51283487  0.40588754     0.80100
N842        N  0.80364185  0.50765838  0.44232655    -0.78200
C843        C  0.78346219  0.96803258  0.44569940     0.82500
N844        N  0.77534655  0.94536567  0.42254377    -0.78200
C845        C  0.77515060  0.95112866  0.38596937     0.82600
N846        N  0.78241519  0.97978060  0.37239118    -0.79900
C847        C  0.51700430  0.70711101  0.36157120    -0.13500
C848        C  0.00423244  0.73105839  0.36306579     0.08700
C849        C  0.51577026  0.75252688  0.33891365    -0.13500
C850        C  0.54752585  0.76806356  0.33330691    -0.13500
C851        C  0.56429706  0.75315996  0.34117231     0.08700
C852        C  0.54874733  0.72260015  0.35565267    -0.13500
H853        H  0.00669158  0.68922005  0.36847832     0.12700
H854        H  0.01070688  0.77691480  0.35576629     0.12700
H855        H  0.55884838  0.79158927  0.32199626     0.12700
H856        H  0.56111046  0.71064514  0.36255024     0.12700
C857        C  0.77042214  0.72635108  0.17568042    -0.16600
C858        C  0.78270547  0.71479810  0.15345101    -0.31700
H859        H  0.75650647  0.73552580  0.16422895     0.12500
H860        H  0.79751009  0.70660303  0.16460954     0.13000
C861        C  0.74932576  0.97726176  0.98932014    -0.13500
C862        C  0.78313201  0.49158211  0.02197341     0.08700
C863        C  0.79684360  0.97678676  0.98357214    -0.13500
C864        C  0.78079815  0.94479037  0.98810694    -0.13500
C865        C  0.74883019  0.92866082  0.99343542     0.08700
C866        C  0.73327484  0.94527666  0.99372669    -0.13500
H867        H  0.73954816  0.48767979  0.00786951     0.12700
H868        H  0.82184152  0.48634783  0.03770348     0.12700
H869        H  0.79355030  0.93278694  0.98731274     0.12700
H870        H  0.70869420  0.93368458  0.99785644     0.12700
C871        C  0.79154793  0.98141613  0.51037820    -0.16600
C872        C  0.78040053  0.96010819  0.48557888    -0.31700
H873        H  0.80435158  0.00554089  0.50121502     0.12500
H874        H  0.76845348  0.93595477  0.49470013     0.13000
C875        C  0.50848862  0.70714652  0.81761233    -0.16600
C876        C  0.53151997  0.71708270  0.84122234    -0.31700
H877        H  0.48499795  0.69507010  0.82812406     0.12500
H878        H  0.55502231  0.72835083  0.83084639     0.13000
C879        C  0.80207698  0.72677192  0.68057375    -0.13500
C880        C  0.78734189  0.69497744  0.68926715     0.08700
C881        C  0.75518261  0.67836100  0.69161496    -0.13500
C882        C  0.73821301  0.69319106  0.68535044    -0.13500
C883        C  0.75299422  0.72493374  0.67630192     0.08700
C884        C  0.78512729  0.74153045  0.67402572    -0.13500
H885        H  0.82676825  0.74035219  0.67825076     0.12700
H886        H  0.74304090  0.65388665  0.69845298     0.12700
H887        H  0.71348788  0.67967319  0.68717228     0.12700
H888        H  0.79731386  0.76603683  0.66750064     0.12700
loop_ 
_geom_bond_atom_site_label_1 
_geom_bond_atom_site_label_2 
_geom_bond_distance 
_geom_bond_site_symmetry_2 
_ccdc_geom_bond_type 
N1            N2   1.324       .  A
N1            C5   1.343       .  A
N1           Cu9   2.064       .  S
N2            C3   1.357       .  A
N2           Cu8   2.132       .  S
C3            C4   1.396       .  A
C3            H6   1.082       .  S
C4            C5   1.377       .  A
C4           C55   1.481       .  S
C5            H7   1.082       .  S
Cu8          N11   2.133       .  S
Cu9          N19   2.063       .  S
Cu10         N12   2.076       .  S
Cu10         N18   2.075       .  S
N11          N12   1.327       .  A
N11          C15   1.355       .  A
N12          C13   1.345       .  A
C13          C14   1.377       .  A
C13          H16   1.082       .  S
C14          C15   1.392       .  A
C14          C49   1.478       .  S
C15          H17   1.082       .  S
N18          N19   1.318       .  A
N18          C22   1.347       .  A
N19          C20   1.342       .  A
C20          C21   1.389       .  A
C20          H23   1.081       .  S
C21          C22   1.392       .  A
C21         C217   1.490       .  S
C22          H24   1.081       .  S
N25          N26   1.324       .  A
N25          C29   1.344       .  A
N25         Cu33   2.072       .  S
N26          C27   1.352       .  A
N26         Cu32   2.108       .  S
C27          C28   1.389       .  A
C27          H30   1.082       .  S
C28          C29   1.379       .  A
C28          C51   1.472       .  S
C29          H31   1.082       .  S
Cu32         N35   2.109       .  S
Cu33         N43   2.072       .  S
Cu34         N36   2.069       .  S
Cu34         N42   2.070       .  S
N35          N36   1.324       .  A
N35          C39   1.350       .  A
N36          C37   1.346       .  A
C37          C38   1.379       .  A
C37          H40   1.082       .  S
C38          C39   1.390       .  A
C38          C59   1.473       .  S
C39          H41   1.083       .  S
N42          N43   1.320       .  A
N42          C46   1.344       .  A
N43          C44   1.345       .  A
C44          C45   1.389       .  A
C44          H47   1.081       .  S
C45          C46   1.387       .  A
C45         C214   1.485       .  S
C46          H48   1.081       .  S
C49          N50   1.363       .  A
C49          N54   1.363       .  A
N50         C495   1.362   1_455  A
C51          N52   1.357       .  A
C51         N494   1.360       .  A
N52         C497   1.358       .  A
C53          N54   1.364       .  A
C53         N496   1.359   1_455  A
C53         C209   1.485       .  S
C55          N56   1.363       .  A
C55          N60   1.366       .  A
N56          C57   1.361       .  A
C57         N280   1.357       .  A
C57         C205   1.485       .  S
N58          C59   1.358       .  A
N58         C279   1.356   1_545  A
C59         N282   1.366   1_545  A
N60         C281   1.366       .  A
N61          N62   1.326       .  A
N61          C65   1.346       .  A
N61         Cu69   2.076   1_554  S
N62          C63   1.351       .  A
N62         Cu68   2.119   1_554  S
C63          C64   1.389       .  A
C63          H66   1.082       .  S
C64          C65   1.379       .  A
C64         C115   1.475       .  S
C65          H67   1.082       .  S
Cu68         N71   2.118       .  S
Cu69         N79   2.076       .  S
Cu70         N72   2.063       .  S
Cu70         N78   2.062       .  S
N71          N72   1.323       .  A
N71          C75   1.355       .  A
N72          C73   1.343       .  A
C73          C74   1.377       .  A
C73          H76   1.082       .  S
C74          C75   1.393       .  A
C74         C111   1.477       .  S
C75          H77   1.082       .  S
N78          N79   1.320       .  A
N78          C82   1.342       .  A
N79          C80   1.347       .  A
C80          C81   1.389       .  A
C80          H83   1.082       .  S
C81          C82   1.385       .  A
C81         C196   1.483   1_545  S
C82          H84   1.082       .  S
N85          N86   1.325       .  A
N85          C89   1.346       .  A
N85         Cu93   2.070   1_556  S
N86          C87   1.351       .  A
N86         Cu92   2.116   1_556  S
C87          C88   1.390       .  A
C87          H90   1.083       .  S
C88          C89   1.379       .  A
C88         C109   1.475       .  S
C89          H91   1.082       .  S
Cu92         N95   2.115       .  S
Cu93        N103   2.069       .  S
Cu94         N96   2.060       .  S
Cu94        N102   2.060       .  S
N95          N96   1.324       .  A
N95          C99   1.354       .  A
N96          C97   1.342       .  A
C97          C98   1.377       .  A
C97         H100   1.082       .  S
C98          C99   1.391       .  A
C98         C119   1.473       .  S
C99         H101   1.082       .  S
N102        N103   1.320       .  A
N102        C106   1.343       .  A
N103        C104   1.344       .  A
C104        C105   1.386       .  A
C104        H107   1.082       .  S
C105        C106   1.385       .  A
C105        C199   1.479       .  S
C106        H108   1.082       .  S
C109        N110   1.365       .  A
C109        N114   1.360       .  A
N110        C555   1.363   1_455  A
C111        N112   1.360       .  A
C111        N554   1.363       .  A
N112        C557   1.361       .  A
C113        N114   1.358       .  A
C113        N556   1.360       .  A
C113        C210   1.486       .  S
C115        N116   1.361       .  A
C115        N120   1.364       .  A
N116        C117   1.360       .  A
C117        N118   1.359       .  A
C117        C192   1.485       .  S
N118        C119   1.358       .  A
C119        N120   1.362       .  A
N121        N122   1.323       .  A
N121        C125   1.341       .  A
N121       Cu129   2.055       .  S
N122        C123   1.355       .  A
N122       Cu128   2.117       .  S
C123        C124   1.393       .  A
C123        H126   1.081       .  S
C124        C125   1.376       .  A
C124        C175   1.474       .  S
C125        H127   1.082       .  S
Cu128       N131   2.119       .  S
Cu129       N139   2.055       .  S
Cu130       N132   2.072       .  S
Cu130       N138   2.071       .  S
N131        N132   1.326       .  A
N131        C135   1.351       .  A
N132        C133   1.345       .  A
C133        C134   1.378       .  A
C133        H136   1.082       .  S
C134        C135   1.389       .  A
C134        C173   1.474       .  S
C135        H137   1.082       .  S
N138        N139   1.318       .  A
N138        C142   1.345       .  A
N139        C140   1.341       .  A
C140        C141   1.387       .  A
C140        H143   1.080       .  S
C141        C142   1.390       .  A
C141        C182   1.484       .  S
C142        H144   1.081       .  S
N145        N146   1.325       .  A
N145        C149   1.346       .  A
N145       Cu153   2.071       .  S
N146        C147   1.352       .  A
N146       Cu152   2.122       .  S
C147        C148   1.391       .  A
C147        H150   1.082       .  S
C148        C149   1.379       .  A
C148        C179   1.477       .  S
C149        H151   1.082       .  S
Cu152       N155   2.122       .  S
Cu153       N163   2.070       .  S
Cu154       N156   2.065       .  S
Cu154       N162   2.065       .  S
N155        N156   1.325       .  A
N155        C159   1.356       .  A
N156        C157   1.342       .  A
C157        C158   1.377       .  A
C157        H160   1.083       .  S
C158        C159   1.393       .  A
C158        C169   1.476       .  S
C159        H161   1.082       .  S
N162        N163   1.318       .  A
N162        C166   1.344       .  A
N163        C164   1.344       .  A
C164        C165   1.390       .  A
C164        H167   1.081       .  S
C165        C166   1.389       .  A
C165        C185   1.487       .  S
C166        H168   1.080       .  S
C169        N170   1.358       .  A
C169        N174   1.362       .  A
N170        C171   1.357       .  A
C171        N172   1.360       .  A
C171        C191   1.480       .  S
N172        C173   1.361       .  A
C173        N174   1.365       .  A
C175        N176   1.361       .  A
C175        N402   1.363   1_545  A
N176        C399   1.359   1_545  A
C177        N178   1.358       .  A
C177        N398   1.361       .  A
C177        C206   1.486       .  S
N178        C179   1.359       .  A
C179        N180   1.366       .  A
N180        C397   1.365       .  A
C181        C186   1.398       .  A
C181        C626   1.404       .  A
C181        H631   1.082       .  S
C182        C625   1.406       .  A
C182        C627   1.405       .  A
C183        C184   1.399       .  A
C183        C626   1.406       .  A
C183        H632   1.082       .  S
C184        C185   1.407       .  A
C184        H189   1.081       .  S
C185        C186   1.407       .  A
C186        H190   1.081       .  S
H187        C625   1.081       .  S
H188        C627   1.082       .  S
C191        C192   1.347       .  D
C191        H193   1.086       .  S
C192        H194   1.086       .  S
C195        C200   1.398   1_556  A
C195        C418   1.407       .  A
C195        H423   1.081   1_556  S
C196        C417   1.404       .  A
C196        C419   1.406       .  A
C197        C198   1.396       .  A
C197        C418   1.407       .  A
C197        H424   1.080       .  S
C198        C199   1.403   1_556  A
C198        H203   1.082       .  S
C199        C200   1.404       .  A
C200        H204   1.082       .  S
H201        C417   1.082       .  S
H202        C419   1.082       .  S
C205        C206   1.347       .  D
C205        H207   1.086       .  S
C206        H208   1.086       .  S
C209        C210   1.347       .  D
C209        H211   1.086   1_455  S
C210        H212   1.086       .  S
C213        C214   1.404       .  A
C213        C218   1.397       .  A
C213        H219   1.081       .  S
C214        C215   1.406       .  A
C215        C216   1.400       .  A
C215        H220   1.082       .  S
C216        C217   1.407       .  A
C216        H221   1.081       .  S
C217        C218   1.407       .  A
C218        H222   1.081       .  S
N223        N224   1.325       .  A
N223        C227   1.340       .  A
N223       Cu231   2.059       .  S
N224        C225   1.358       .  A
N224       Cu230   2.132       .  S
C225        C226   1.396       .  A
C225        H228   1.081       .  S
C226        C227   1.375       .  A
C226        C277   1.479       .  S
C227        H229   1.082       .  S
Cu230       N233   2.133       .  S
Cu231       N241   2.058       .  S
Cu232       N234   2.062       .  S
Cu232       N240   2.062       .  S
N233        N234   1.326       .  A
N233        C237   1.354       .  A
N234        C235   1.344       .  A
C235        C236   1.376       .  A
C235        H238   1.082       .  S
C236        C237   1.394       .  A
C236        C271   1.477       .  S
C237        H239   1.083       .  S
N240        N241   1.317       .  A
N240        C244   1.343       .  A
N241        C242   1.344       .  A
C242        C243   1.388       .  A
C242        H245   1.081       .  S
C243        C244   1.388       .  A
C243        C439   1.483       .  S
C244        H246   1.081       .  S
N247        N248   1.324       .  A
N247        C251   1.345       .  A
N247       Cu255   2.068       .  S
N248        C249   1.351       .  A
N248       Cu254   2.115       .  S
C249        C250   1.391       .  A
C249        H252   1.082       .  S
C250        C251   1.380       .  A
C250        C273   1.473       .  S
C251        H253   1.083       .  S
Cu254       N257   2.115       .  S
Cu255       N265   2.068       .  S
Cu256       N258   2.073       .  S
Cu256       N264   2.073       .  S
N257        N258   1.323       .  A
N257        C261   1.351       .  A
N258        C259   1.346       .  A
C259        C260   1.381       .  A
C259        H262   1.082       .  S
C260        C261   1.391       .  A
C260        C281   1.476       .  S
C261        H263   1.082       .  S
N264        N265   1.320       .  A
N264        C268   1.344       .  A
N265        C266   1.344       .  A
C266        C267   1.387       .  A
C266        H269   1.081       .  S
C267        C268   1.388       .  A
C267        C436   1.484       .  S
C268        H270   1.081       .  S
C271        N272   1.365       .  A
C271        N276   1.359       .  A
N272        C717   1.363       .  A
C273        N716   1.363       .  A
C273        N274   1.356       .  A
N274        C719   1.357       .  A
C275        N718   1.361       .  A
C275        N276   1.359       .  A
C275        C431   1.484       .  S
C277        N278   1.361       .  A
C277        N282   1.364       .  A
N278        C279   1.358       .  A
C279        C427   1.482       .  S
N280        C281   1.358       .  A
N283        N284   1.325       .  A
N283        C287   1.344       .  A
N283       Cu291   2.065   1_554  S
N284        C285   1.352       .  A
N284       Cu290   2.117       .  S
C285        C286   1.390       .  A
C285        H288   1.082       .  S
C286        C287   1.376       .  A
C286        C337   1.472       .  S
C287        H289   1.082       .  S
Cu290       N293   2.116   1_554  S
Cu291       N301   2.064       .  S
Cu292       N294   2.066       .  S
Cu292       N300   2.065       .  S
N293        N294   1.324       .  A
N293        C297   1.354       .  A
N294        C295   1.343       .  A
C295        C296   1.378       .  A
C295        H298   1.082       .  S
C296        C297   1.391       .  A
C296        C333   1.476       .  S
C297        H299   1.082       .  S
N300        N301   1.318       .  A
N300        C304   1.342       .  A
N301        C302   1.344       .  A
C302        C303   1.389       .  A
C302        H305   1.081       .  S
C303        C304   1.389       .  A
C303        C418   1.486       .  S
C304        H306   1.080       .  S
N307        N308   1.324       .  A
N307        C311   1.342       .  A
N307       Cu315   2.062       .  S
N308        C309   1.355       .  A
N308       Cu314   2.121   1_556  S
C309        C310   1.392       .  A
C309        H312   1.082       .  S
C310        C311   1.376       .  A
C310        C331   1.475       .  S
C311        H313   1.082       .  S
Cu314       N317   2.121       .  S
Cu315       N325   2.061       .  S
Cu316       N318   2.073       .  S
Cu316       N324   2.072   1_554  S
N317        N318   1.326       .  A
N317        C321   1.354       .  A
N318        C319   1.344       .  A
C319        C320   1.377       .  A
C319        H322   1.082       .  S
C320        C321   1.390       .  A
C320        C341   1.474       .  S
C321        H323   1.082       .  S
N324        N325   1.318       .  A
N324        C328   1.346       .  A
N325        C326   1.343       .  A
C326        C327   1.387       .  A
C326        H329   1.081       .  S
C327        C328   1.391       .  A
C327        C421   1.486       .  S
C328        H330   1.081   1_556  S
C331        N332   1.364       .  A
C331        N336   1.361       .  A
N332        C777   1.364   1_455  A
C333        N776   1.362       .  A
C333        N334   1.360       .  A
N334        C779   1.361       .  A
C335        N778   1.357   1_455  A
C335        N336   1.360       .  A
C335        C432   1.482       .  S
C337        N338   1.358       .  A
C337        N342   1.362       .  A
N338        C339   1.359       .  A
C339        N340   1.362       .  A
C339        C414   1.483       .  S
N340        C341   1.361       .  A
C341        N342   1.361       .  A
N343        N344   1.324       .  A
N343        C347   1.344       .  A
N343       Cu351   2.071       .  S
N344        C345   1.357       .  A
N344       Cu350   2.128       .  S
C345        C346   1.395       .  A
C345        H348   1.081       .  S
C346        C347   1.378       .  A
C346        C397   1.482       .  S
C347        H349   1.082       .  S
Cu350       N353   2.128       .  S
Cu351       N361   2.071       .  S
Cu352       N354   2.068       .  S
Cu352       N360   2.068       .  S
N353        N354   1.326       .  A
N353        C357   1.353       .  A
N354        C355   1.346       .  A
C355        C356   1.378       .  A
C355        H358   1.082       .  S
C356        C357   1.391       .  A
C356        C395   1.476       .  S
C357        H359   1.082       .  S
N360        N361   1.318       .  A
N360        C364   1.344       .  A
N361        C362   1.345       .  A
C362        C363   1.390       .  A
C362        H365   1.080       .  S
C363        C364   1.390       .  A
C363        C404   1.489       .  S
C364        H366   1.081       .  S
N367        N368   1.324       .  A
N367        C371   1.344       .  A
N367       Cu375   2.065       .  S
N368        C369   1.349       .  A
N368       Cu374   2.109       .  S
C369        C370   1.389       .  A
C369        H372   1.083       .  S
C370        C371   1.379       .  A
C370        C401   1.469       .  S
C371        H373   1.082       .  S
Cu374       N377   2.109       .  S
Cu375       N385   2.065       .  S
Cu376       N378   2.069       .  S
Cu376       N384   2.069       .  S
N377        N378   1.323       .  A
N377        C381   1.353       .  A
N378        C379   1.344       .  A
C379        C380   1.379       .  A
C379        H382   1.082       .  S
C380        C381   1.390       .  A
C380        C391   1.474       .  S
C381        H383   1.082       .  S
N384        N385   1.319       .  A
N384        C388   1.343       .  A
N385        C386   1.344       .  A
C386        C387   1.388       .  A
C386        H389   1.081       .  S
C387        C388   1.388       .  A
C387        C407   1.485       .  S
C388        H390   1.081       .  S
C391        N392   1.358       .  A
C391        N396   1.362       .  A
N392        C393   1.358       .  A
C393        N394   1.362       .  A
C393        C413   1.482       .  S
N394        C395   1.361       .  A
C395        N396   1.364       .  A
C397        N398   1.362       .  A
C399        N400   1.356       .  A
C399        C428   1.481       .  S
N400        C401   1.358       .  A
C401        N402   1.364       .  A
C403        C848   1.405       .  A
C403        C408   1.396       .  A
C403        H853   1.082       .  S
C404        C847   1.407       .  A
C404        C849   1.408       .  A
C405        C848   1.404       .  A
C405        C406   1.398       .  A
C405        H854   1.082       .  S
C406        C407   1.407       .  A
C406        H411   1.082       .  S
C407        C408   1.405       .  A
C408        H412   1.081       .  S
H409        C847   1.081       .  S
H410        C849   1.081       .  S
C413        C414   1.346       .  D
C413        H415   1.087       .  S
C414        H416   1.087       .  S
C417        C422   1.398       .  A
C419        C420   1.398       .  A
C420        C421   1.405       .  A
C420        H425   1.081       .  S
C421        C422   1.407       .  A
C422        H426   1.081       .  S
C427        C428   1.346       .  D
C427        H429   1.086   1_565  S
C428        H430   1.086       .  S
C431        C432   1.346       .  D
C431        H433   1.087       .  S
C432        H434   1.087   1_455  S
C435        C436   1.406       .  A
C435        C440   1.397       .  A
C435        H441   1.081       .  S
C436        C437   1.405       .  A
C437        C438   1.397       .  A
C437        H442   1.081       .  S
C438        C439   1.405       .  A
C438        H443   1.081       .  S
C439        C440   1.405       .  A
C440        H444   1.082       .  S
N445        N446   1.324       .  A
N445        C449   1.341       .  A
N445       Cu453   2.063       .  S
N446        C447   1.356       .  A
N446       Cu452   2.122       .  S
C447        C448   1.393       .  A
C447        H450   1.081       .  S
C448        C449   1.376       .  A
C448        C499   1.476       .  S
C449        H451   1.082       .  S
Cu452       N455   2.122       .  S
Cu453       N463   2.061       .  S
Cu454       N456   2.061       .  S
Cu454       N462   2.059       .  S
N455        N456   1.325       .  A
N455        C459   1.353       .  A
N456        C457   1.343       .  A
C457        C458   1.375       .  A
C457        H460   1.082       .  S
C458        C459   1.391       .  A
C458        C493   1.473       .  S
C459        H461   1.082       .  S
N462        N463   1.317       .  A
N462        C466   1.343       .  A
N463        C464   1.343       .  A
C464        C465   1.389       .  A
C464        H467   1.081       .  S
C465        C466   1.388       .  A
C465        C661   1.483       .  S
C466        H468   1.081       .  S
N469        N470   1.324       .  A
N469        C473   1.345       .  A
N469       Cu477   2.071       .  S
N470        C471   1.351       .  A
N470       Cu476   2.109       .  S
C471        C472   1.389       .  A
C471        H474   1.082       .  S
C472        C473   1.380       .  A
C472        C495   1.473       .  S
C473        H475   1.083       .  S
Cu476       N479   2.109       .  S
Cu477       N487   2.070       .  S
Cu478       N480   2.064       .  S
Cu478       N486   2.064       .  S
N479        N480   1.323       .  A
N479        C483   1.350       .  A
N480        C481   1.344       .  A
C481        C482   1.380       .  A
C481        H484   1.082       .  S
C482        C483   1.391       .  A
C482        C503   1.471   1_545  S
C483        H485   1.082       .  S
N486        N487   1.320       .  A
N486        C490   1.343       .  A
N487        C488   1.343       .  A
C488        C489   1.388       .  A
C488        H491   1.081       .  S
C489        C490   1.387       .  A
C489        C658   1.483       .  S
C490        H492   1.082       .  S
C493        N494   1.362       .  A
C493        N498   1.362       .  A
C495        N496   1.358       .  A
C497        N498   1.363       .  A
C497        C653   1.483       .  S
C499        N500   1.360       .  A
C499        N504   1.364       .  A
N500        C501   1.358       .  A
C501        N724   1.358       .  A
C501        C649   1.483       .  S
N502        C723   1.355       .  A
N502        C503   1.356       .  A
C503        N726   1.364       .  A
N504        C725   1.366       .  A
N505        N506   1.325       .  A
N505        C509   1.346       .  A
N505       Cu513   2.069   1_554  S
N506        C507   1.354       .  A
N506       Cu512   2.132       .  S
C507        C508   1.393       .  A
C507        H510   1.082       .  S
C508        C509   1.378       .  A
C508        C559   1.480       .  S
C509        H511   1.082       .  S
Cu512       N515   2.131   1_554  S
Cu513       N523   2.068       .  S
Cu514       N516   2.058       .  S
Cu514       N522   2.057       .  S
N515        N516   1.325       .  A
N515        C519   1.357       .  A
N516        C517   1.341       .  A
C517        C518   1.376       .  A
C517        H520   1.082       .  S
C518        C519   1.395       .  A
C518        C555   1.478       .  S
C519        H521   1.081       .  S
N522        N523   1.318       .  A
N522        C526   1.343       .  A
N523        C524   1.343       .  A
C524        C525   1.388       .  A
C524        H527   1.082   1_556  S
C525        C526   1.387       .  A
C525        C640   1.482   1_545  S
C526        H528   1.082       .  S
N529        N530   1.326       .  A
N529        C533   1.345       .  A
N529       Cu537   2.069   1_556  S
N530        C531   1.353       .  A
N530       Cu536   2.128   1_556  S
C531        C532   1.392       .  A
C531        H534   1.082       .  S
C532        C533   1.377       .  A
C532        C553   1.476       .  S
C533        H535   1.082       .  S
Cu536       N539   2.127       .  S
Cu537       N547   2.068       .  S
Cu538       N540   2.057       .  S
Cu538       N546   2.056       .  S
N539        N540   1.323       .  A
N539        C543   1.357       .  A
N540        C541   1.340       .  A
C541        C542   1.376       .  A
C541        H544   1.082       .  S
C542        C543   1.395       .  A
C542        C563   1.478       .  S
C543        H545   1.081       .  S
N546        N547   1.317       .  A
N546        C550   1.341       .  A
N547        C548   1.345       .  A
C548        C549   1.391       .  A
C548        H551   1.081       .  S
C549        C550   1.387       .  A
C549        C643   1.486       .  S
C550        H552   1.080       .  S
C553        N554   1.364       .  A
C553        N558   1.359       .  A
C555        N556   1.361   1_655  A
C557        N558   1.359       .  A
C557        C654   1.485       .  S
C559        N560   1.362       .  A
C559        N564   1.367       .  A
N560        C561   1.360       .  A
C561        N562   1.358       .  A
C561        C636   1.485       .  S
N562        C563   1.359       .  A
C563        N564   1.364       .  A
N565        N566   1.325       .  A
N565        C569   1.344       .  A
N565       Cu573   2.072       .  S
N566        C567   1.354       .  A
N566       Cu572   2.117       .  S
C567        C568   1.391       .  A
C567        H570   1.082       .  S
C568        C569   1.377       .  A
C568        C619   1.476       .  S
C569        H571   1.082       .  S
Cu572       N575   2.117       .  S
Cu573       N583   2.071       .  S
Cu574       N576   2.060       .  S
Cu574       N582   2.060       .  S
N575        N576   1.324       .  A
N575        C579   1.352       .  A
N576        C577   1.343       .  A
C577        C578   1.376       .  A
C577        H580   1.082       .  S
C578        C579   1.391       .  A
C578        C617   1.470       .  S
C579        H581   1.082       .  S
N582        N583   1.318       .  A
N582        C586   1.344       .  A
N583        C584   1.345       .  A
C584        C585   1.390       .  A
C584        H587   1.080       .  S
C585        C586   1.387       .  A
C585        C626   1.484   1_655  S
C586        H588   1.081       .  S
N589        N590   1.325       .  A
N589        C593   1.345       .  A
N589       Cu597   2.066       .  S
N590        C591   1.351       .  A
N590       Cu596   2.120       .  S
C591        C592   1.390       .  A
C591        H594   1.082       .  S
C592        C593   1.377       .  A
C592        C623   1.472       .  S
C593        H595   1.082       .  S
Cu596       N599   2.120       .  S
Cu597       N607   2.066       .  S
Cu598       N600   2.065       .  S
Cu598       N606   2.065       .  S
N599        N600   1.324       .  A
N599        C603   1.355       .  A
N600        C601   1.343       .  A
C601        C602   1.377       .  A
C601        H604   1.082       .  S
C602        C603   1.393       .  A
C602        C613   1.477       .  S
C603        H605   1.082       .  S
N606        N607   1.319       .  A
N606        C610   1.342       .  A
N607        C608   1.345       .  A
C608        C609   1.388       .  A
C608        H611   1.081       .  S
C609        C610   1.388       .  A
C609        C629   1.484       .  S
C610        H612   1.081       .  S
C613        N614   1.361       .  A
C613        N618   1.363       .  A
N614        C615   1.360       .  A
C615        N616   1.358       .  A
C615        C635   1.482       .  S
N616        C617   1.358       .  A
C617        N618   1.364       .  A
C619        N620   1.362   1_545  A
C619        N846   1.363   1_545  A
N620        C843   1.362       .  A
C621        N842   1.359       .  A
C621        N622   1.358       .  A
C621        C650   1.483       .  S
N622        C623   1.359       .  A
C623        N624   1.364       .  A
N624        C841   1.363       .  A
C625        C630   1.395       .  A
C627        C628   1.399       .  A
C628        C629   1.406       .  A
C628        H633   1.082       .  S
C629        C630   1.405       .  A
C630        H634   1.081       .  S
C635        C636   1.350       .  D
C635        H637   1.086       .  S
C636        H638   1.086       .  S
C639        C862   1.406       .  A
C639        C644   1.399       .  A
C639        H867   1.082       .  S
C640        C861   1.405       .  A
C640        C863   1.405       .  A
C641        C862   1.403       .  A
C641        C642   1.395       .  A
C641        H868   1.081       .  S
C642        C643   1.407       .  A
C642        H647   1.081       .  S
C643        C644   1.406       .  A
C644        H648   1.081       .  S
H645        C861   1.082       .  S
H646        C863   1.082       .  S
C649        C650   1.348       .  D
C649        H651   1.086       .  S
C650        H652   1.086       .  S
C653        C654   1.346       .  D
C653        H655   1.086       .  S
C654        H656   1.086       .  S
C657        C658   1.405       .  A
C657        C662   1.396       .  A
C657        H663   1.081       .  S
C658        C659   1.406       .  A
C659        C660   1.397       .  A
C659        H664   1.082       .  S
C660        C661   1.406       .  A
C660        H665   1.082       .  S
C661        C662   1.405       .  A
C662        H666   1.081       .  S
N667        N668   1.325       .  A
N667        C671   1.344       .  A
N667       Cu675   2.071       .  S
N668        C669   1.355       .  A
N668       Cu674   2.123       .  S
C669        C670   1.392       .  A
C669        H672   1.082       .  S
C670        C671   1.378       .  A
C670        C721   1.478       .  S
C671        H673   1.082       .  S
Cu674       N677   2.123       .  S
Cu675       N685   2.070       .  S
Cu676       N678   2.070       .  S
Cu676       N684   2.069       .  S
N677        N678   1.325       .  A
N677        C681   1.355       .  A
N678        C679   1.344       .  A
C679        C680   1.376       .  A
C679        H682   1.082       .  S
C680        C681   1.392       .  A
C680        C715   1.476       .  S
C681        H683   1.082       .  S
N684        N685   1.319       .  A
N684        C688   1.346       .  A
N685        C686   1.344       .  A
C686        C687   1.388       .  A
C686        H689   1.081       .  S
C687        C688   1.388       .  A
C687        C883   1.485       .  S
C688        H690   1.081       .  S
N691        N692   1.324       .  A
N691        C695   1.343       .  A
N691       Cu699   2.067       .  S
N692        C693   1.356       .  A
N692       Cu698   2.121       .  S
C693        C694   1.393       .  A
C693        H696   1.081       .  S
C694        C695   1.377       .  A
C694        C717   1.477   1_655  S
C695        H697   1.082       .  S
Cu698       N701   2.121       .  S
Cu699       N709   2.067       .  S
Cu700       N702   2.071       .  S
Cu700       N708   2.071       .  S
N701        N702   1.325       .  A
N701        C705   1.351       .  A
N702        C703   1.346       .  A
C703        C704   1.379       .  A
C703        H706   1.083       .  S
C704        C705   1.391       .  A
C704        C725   1.475       .  S
C705        H707   1.082       .  S
N708        N709   1.319       .  A
N708        C712   1.345       .  A
N709        C710   1.344       .  A
C710        C711   1.388       .  A
C710        H713   1.082       .  S
C711        C712   1.389       .  A
C711        C880   1.486       .  S
C712        H714   1.081       .  S
C715        N716   1.364       .  A
C715        N720   1.363       .  A
C717        N718   1.360       .  A
C719        N720   1.362       .  A
C719        C875   1.483       .  S
C721        N722   1.361       .  A
C721        N726   1.365       .  A
N722        C723   1.361       .  A
C723        C871   1.481       .  S
N724        C725   1.360       .  A
N727        N728   1.323       .  A
N727        C731   1.344       .  A
N727       Cu735   2.058       .  S
N728        C729   1.350       .  A
N728       Cu734   2.110       .  S
C729        C730   1.390       .  A
C729        H732   1.082       .  S
C730        C731   1.378       .  A
C730        C781   1.470       .  S
C731        H733   1.082       .  S
Cu734       N737   2.111   1_554  S
Cu735       N745   2.059       .  S
Cu736       N738   2.075   1_554  S
Cu736       N744   2.075       .  S
N737        N738   1.324       .  A
N737        C741   1.350       .  A
N738        C739   1.346       .  A
C739        C740   1.380       .  A
C739        H742   1.083       .  S
C740        C741   1.390       .  A
C740        C777   1.474       .  S
C741        H743   1.082       .  S
N744        N745   1.320       .  A
N744        C748   1.344       .  A
N745        C746   1.343       .  A
C746        C747   1.385       .  A
C746        H749   1.081       .  S
C747        C748   1.389       .  A
C747        C862   1.482       .  S
C748        H750   1.081       .  S
N751        N752   1.325       .  A
N751        C755   1.344       .  A
N751       Cu759   2.065       .  S
N752        C753   1.352       .  A
N752       Cu758   2.118   1_556  S
C753        C754   1.391       .  A
C753        H756   1.082       .  S
C754        C755   1.377       .  A
C754        C775   1.472       .  S
C755        H757   1.082       .  S
Cu758       N761   2.118       .  S
Cu759       N769   2.065   1_556  S
Cu760       N762   2.061       .  S
Cu760       N768   2.060       .  S
N761        N762   1.324       .  A
N761        C765   1.354       .  A
N762        C763   1.342       .  A
C763        C764   1.376       .  A
C763        H766   1.082       .  S
C764        C765   1.391       .  A
C764        C785   1.473       .  S
C765        H767   1.082       .  S
N768        N769   1.319       .  A
N768        C772   1.343       .  A
N769        C770   1.343   1_554  A
C770        C771   1.388       .  A
C770        H773   1.081       .  S
C771        C772   1.387   1_556  A
C771        C865   1.482       .  S
C772        H774   1.081       .  S
C775        N776   1.363       .  A
C775        N780   1.360       .  A
C777        N778   1.358       .  A
C779        N780   1.358       .  A
C779        C876   1.485       .  S
C781        N782   1.358       .  A
C781        N786   1.362       .  A
N782        C783   1.357       .  A
C783        N784   1.361       .  A
C783        C858   1.483       .  S
N784        C785   1.360       .  A
C785        N786   1.362       .  A
N787        N788   1.324       .  A
N787        C791   1.340       .  A
N787       Cu795   2.054       .  S
N788        C789   1.356       .  A
N788       Cu794   2.125       .  S
C789        C790   1.394       .  A
C789        H792   1.081       .  S
C790        C791   1.375       .  A
C790        C841   1.476       .  S
C791        H793   1.082       .  S
Cu794       N797   2.126       .  S
Cu795       N805   2.053       .  S
Cu796       N798   2.071       .  S
Cu796       N804   2.070       .  S
N797        N798   1.326       .  A
N797        C801   1.354       .  A
N798        C799   1.345       .  A
C799        C800   1.377       .  A
C799        H802   1.082       .  S
C800        C801   1.391       .  A
C800        C839   1.477       .  S
C801        H803   1.082       .  S
N804        N805   1.317       .  A
N804        C808   1.345       .  A
N805        C806   1.342       .  A
C806        C807   1.386       .  A
C806        H809   1.081       .  S
C807        C808   1.389       .  A
C807        C848   1.482   1_655  S
C808        H810   1.081       .  S
N811        N812   1.324       .  A
N811        C815   1.344       .  A
N811       Cu819   2.068       .  S
N812        C813   1.349       .  A
N812       Cu818   2.107       .  S
C813        C814   1.389       .  A
C813        H816   1.083       .  S
C814        C815   1.378       .  A
C814        C845   1.469       .  S
C815        H817   1.082       .  S
Cu818       N821   2.107       .  S
Cu819       N829   2.069       .  S
Cu820       N822   2.071       .  S
Cu820       N828   2.071       .  S
N821        N822   1.324       .  A
N821        C825   1.353       .  A
N822        C823   1.343       .  A
C823        C824   1.379       .  A
C823        H826   1.082       .  S
C824        C825   1.389       .  A
C824        C835   1.473       .  S
C825        H827   1.082       .  S
N828        N829   1.320       .  A
N828        C832   1.345       .  A
N829        C830   1.345       .  A
C830        C831   1.386       .  A
C830        H833   1.082       .  S
C831        C832   1.386       .  A
C831        C851   1.481       .  S
C832        H834   1.082       .  S
C835        N836   1.357       .  A
C835        N840   1.361       .  A
N836        C837   1.356       .  A
C837        N838   1.363       .  A
C837        C857   1.481       .  S
N838        C839   1.362       .  A
C839        N840   1.364       .  A
C841        N842   1.361       .  A
C843        N844   1.356       .  A
C843        C872   1.481       .  S
N844        C845   1.356       .  A
C845        N846   1.363       .  A
C847        C852   1.399       .  A
C849        C850   1.398       .  A
C850        C851   1.403       .  A
C850        H855   1.083       .  S
C851        C852   1.404       .  A
C852        H856   1.082       .  S
C857        C858   1.344       .  D
C857        H859   1.087       .  S
C858        H860   1.086       .  S
C861        C866   1.396       .  A
C863        C864   1.397       .  A
C864        C865   1.406       .  A
C864        H869   1.082       .  S
C865        C866   1.405       .  A
C866        H870   1.082       .  S
C871        C872   1.343       .  D
C871        H873   1.086   1_565  S
C872        H874   1.086       .  S
C875        C876   1.346       .  D
C875        H877   1.086       .  S
C876        H878   1.086       .  S
C879        C880   1.406       .  A
C879        C884   1.397       .  A
C879        H885   1.082       .  S
C880        C881   1.406       .  A
C881        C882   1.400       .  A
C881        H886   1.082       .  S
C882        C883   1.405       .  A
C882        H887   1.083       .  S
C883        C884   1.405       .  A
C884        H888   1.082       .  S
