geometry optimzed in LAMMPS
_audit_creation_date              2020-11-30 
_audit_creation_method            'lammps2cif' 
_symmetry_space_group_name_H-M    'P1' 
_symmetry_Int_Tables_number       1 
_symmetry_cell_setting            triclinic 
loop_ 
_symmetry_equiv_pos_as_xyz 
  x,y,z 
_cell_length_a                    64.71655518 
_cell_length_b                    64.64851331720311 
_cell_length_c                    37.0706598071296 
_cell_angle_alpha                 90.08868182204564 
_cell_angle_beta                  89.91644901762717 
_cell_angle_gamma                 119.48667838679633 
loop_ 
_atom_site_label 
_atom_site_type_symbol 
_atom_site_fract_x 
_atom_site_fract_y 
_atom_site_fract_z 
_atom_site_charge 
O1          O  0.14551042  0.50132139  0.16931792    -0.84700
O2          O  0.14990914  0.50544892  0.24313954    -0.81700
C3          C  0.13030404  0.50487185  0.24634795     0.98800
O4          O  0.11168058  0.48563605  0.24023526    -0.81700
O5          O  0.08107696  0.44100603  0.21408715    -0.84400
C6          C  0.07723226  0.43811770  0.18031178     1.03300
O7          O  0.09307018  0.43999635  0.15892061    -0.77200
O8          O  0.13564648  0.47109570  0.13193881    -0.77300
C9          C  0.13864971  0.49187087  0.13867773     1.03300
O10         O  0.17508053  0.48097208  0.16739616    -0.84700
O11         O  0.17039537  0.47581985  0.24147938    -0.81700
C12         C  0.16080554  0.46956521  0.27213699     0.98800
O13         O  0.13997411  0.46659828  0.27813328    -0.81800
O14         O  0.10930769  0.42384416  0.25037058    -0.84400
C15         C  0.10763127  0.40801983  0.22895096     1.03300
O16         O  0.11049816  0.41187643  0.19515664    -0.77200
O17         O  0.15463841  0.44263156  0.16862271    -0.77300
C18         C  0.17384975  0.46118220  0.16245102     1.03300
Cr19       Cr  0.15809994  0.48873909  0.20529032     1.93700
Cr20       Cr  0.11189176  0.45488168  0.24276062     1.93200
Cr21       Cr  0.12408851  0.44280180  0.16669507     1.39100
O22         O  0.13089637  0.46163410  0.20489142    -1.22400
O23         O  0.97127557  0.15872457  0.41779848    -0.84700
O24         O  0.97101223  0.15447322  0.34351750    -0.81700
C25         C  0.95392923  0.15800161  0.33666780     0.98800
O26         O  0.95657326  0.17846528  0.34143591    -0.81700
O27         O  0.97396614  0.22414242  0.36919830    -0.84400
C28         C  0.96958883  0.22430349  0.40271575     1.03300
O29         O  0.97945690  0.21787354  0.42581218    -0.77200
O30         O  0.99328073  0.18824647  0.45453390    -0.77300
C31         C  0.97494620  0.16806922  0.44874992     1.03300
O32         O  0.02195946  0.17805347  0.41750279    -0.84700
O33         O  0.02137122  0.18074917  0.34408100    -0.81700
C34         C  0.01991636  0.18836316  0.31339675     0.98800
O35         O  0.00350317  0.19342779  0.30689365    -0.81800
O36         O  0.01933837  0.23617669  0.33639710    -0.84400
C37         C  0.03009594  0.25211716  0.35942012     1.03300
O38         O  0.02518666  0.24796913  0.39276598    -0.77200
O39         O  0.03954983  0.21664793  0.41736955    -0.77300
C40         C  0.04061743  0.19786451  0.42116410     1.03300
Cr41       Cr  0.99641184  0.17006278  0.38081303     1.93700
Cr42       Cr  0.98878420  0.20723598  0.34158717     1.93200
Cr43       Cr  0.00871100  0.21633702  0.41961109     1.39100
O44         O  0.99791357  0.19812961  0.38061062    -1.22400
O45         O  0.82492572  0.30971218  0.00073991    -0.84700
O46         O  0.82320251  0.31143020  0.07437492    -0.81700
C47         C  0.82389017  0.29249760  0.07885270     0.98800
O48         O  0.84307340  0.29248708  0.07303879    -0.81700
O49         O  0.88850982  0.30638468  0.04611456    -0.84400
C50         C  0.88826982  0.30175129  0.01267706     1.03300
O51         O  0.88197670  0.31178915  0.98974113    -0.77200
O52         O  0.85283992  0.33110486  0.47344615    -0.77300
C53         C  0.83220615  0.31392074  0.48100523     1.03300
O54         O  0.84832505  0.35999393  0.99766092    -0.84700
O55         O  0.85360136  0.36104293  0.07104732    -0.81700
C56         C  0.86020115  0.35823252  0.10176776     0.98800
O57         O  0.86195279  0.33976265  0.10844658    -0.81800
O58         O  0.90393411  0.35232040  0.07830032    -0.84400
C59         C  0.91972371  0.36219056  0.05472352     1.03300
O60         O  0.91502659  0.35726190  0.02144997    -0.77200
O61         O  0.88475473  0.37728099  0.50994935    -0.77300
C62         C  0.86710015  0.38021098  0.50614440     1.03300
Cr63       Cr  0.83935728  0.33540487  0.03583960     1.93700
Cr64       Cr  0.87360174  0.32316544  0.07356677     1.93200
Cr65       Cr  0.88165888  0.34528069  0.50695017     1.39100
O66         O  0.86566627  0.33356586  0.03483277    -1.22400
O67         O  0.85138499  0.48727898  0.25675257    -0.84700
O68         O  0.85618763  0.49394502  0.32979639    -0.81700
C69         C  0.86203816  0.50403773  0.36008606     0.98800
O70         O  0.86248796  0.52377465  0.36531979    -0.81700
O71         O  0.90455958  0.55331326  0.33620656    -0.84400
C72         C  0.92071501  0.55771210  0.31377141     1.03300
O73         O  0.91671978  0.55691571  0.27998238    -0.77200
O74         O  0.88930465  0.51146944  0.25473173    -0.77300
C75         C  0.87203690  0.49089011  0.25082035     1.03300
O76         O  0.82638557  0.51264862  0.25550861    -0.84700
O77         O  0.82377361  0.51165760  0.32917076    -0.81700
C78         C  0.82386819  0.53112213  0.33206547     0.98800
O79         O  0.84275938  0.55018137  0.32597026    -0.81800
O80         O  0.88785739  0.58175053  0.30062518    -0.84400
C81         C  0.88833042  0.58557270  0.26695539     1.03300
O82         O  0.88386787  0.56928213  0.24467526    -0.77200
O83         O  0.85679849  0.52523494  0.21801896    -0.77300
C84         C  0.83499120  0.51884869  0.22431227     1.03300
Cr85       Cr  0.84139995  0.50354486  0.29279280     1.93700
Cr86       Cr  0.87373533  0.55092216  0.32901608     1.93200
Cr87       Cr  0.88534692  0.54005609  0.25232137     1.39100
O88         O  0.86708664  0.53189151  0.29115243    -1.22400
O89         O  0.17676505  0.69017958  0.41513460    -0.84700
O90         O  0.17484748  0.68986955  0.48853571    -0.81700
C91         C  0.16297368  0.68656958  0.02830445     0.98800
O92         O  0.14322451  0.66771211  0.03363628    -0.81700
O93         O  0.11771244  0.68632569  0.49895776    -0.84400
C94         C  0.10983224  0.69511008  0.47633484     1.03300
O95         O  0.10807648  0.68904841  0.44324029    -0.77200
O96         O  0.15335820  0.70543918  0.41527485    -0.77300
C97         C  0.17362851  0.70777443  0.41017194     1.03300
O98         O  0.14901557  0.63956924  0.41634426    -0.84700
O99         O  0.15309088  0.63928128  0.48983357    -0.81700
C100        C  0.13434186  0.62118370  0.00038019     0.98800
O101        O  0.11582781  0.62230206  0.99403860    -0.81800
O102        O  0.08473202  0.64027430  0.46834891    -0.84400
C103        C  0.07968590  0.63414916  0.43544788     1.03300
O104        O  0.09536640  0.64309110  0.41153624    -0.77200
O105        O  0.13782055  0.65894457  0.37969981    -0.77300
C106        C  0.14283688  0.64242291  0.38541396     1.03300
Cr107      Cr  0.16134303  0.66468794  0.45255680     1.93700
Cr108      Cr  0.11612225  0.65302917  0.99730789     1.93200
Cr109      Cr  0.12448135  0.67367216  0.41532644     1.39100
O110        O  0.13404646  0.66468962  0.45393970    -1.22400
O111        O  0.02441341  0.84488631  0.16069825    -0.84700
O112        O  0.02391750  0.83962037  0.08701325    -0.81700
C113        C  0.02073783  0.82954181  0.05676666     0.98800
O114        O  0.00268396  0.80909447  0.05136771    -0.81700
O115        O  0.01837757  0.78122848  0.08019137    -0.84400
C116        C  0.02961419  0.77634177  0.10308929     1.03300
O117        O  0.02600654  0.77728250  0.13675216    -0.77200
O118        O  0.04118528  0.82301419  0.16098504    -0.77300
C119        C  0.04272269  0.84304855  0.16481780     1.03300
O120        O  0.97452606  0.81639877  0.16098003    -0.84700
O121        O  0.97328918  0.81826093  0.08740674    -0.81700
C122        C  0.95505171  0.79805383  0.08493671     0.98800
O123        O  0.95703687  0.77992118  0.09049787    -0.81800
O124        O  0.97353466  0.75059597  0.11578288    -0.84400
C125        C  0.96975200  0.74680849  0.14944935     1.03300
O126        O  0.98078362  0.76321801  0.17176429    -0.77200
O127        O  0.99453079  0.80652934  0.19871605    -0.77300
C128        C  0.97673234  0.80943619  0.19175710     1.03300
Cr129      Cr  0.99910568  0.82785505  0.12405772     1.93700
Cr130      Cr  0.98849684  0.78154874  0.08731823     1.93200
Cr131      Cr  0.01008613  0.79323815  0.16417344     1.39100
O132        O  0.99921921  0.80054110  0.12528158    -1.22400
O133        O  0.30574527  0.82396260  0.24621612    -0.84700
O134        O  0.30656542  0.81772742  0.17290975    -0.81700
C135        C  0.28831631  0.81942424  0.16711637     0.98800
O136        O  0.28939742  0.83918238  0.17165032    -0.81700
O137        O  0.30362952  0.88489544  0.19376669    -0.84400
C138        C  0.30002733  0.88641900  0.22718136     1.03300
O139        O  0.31180855  0.88276099  0.25066823    -0.77200
O140        O  0.32630807  0.85480851  0.28176915    -0.77300
C141        C  0.30816534  0.83452093  0.27585517     1.03300
O142        O  0.35611575  0.84485037  0.24860391    -0.84700
O143        O  0.35635021  0.84661044  0.17475218    -0.81700
C144        C  0.35412395  0.85303450  0.14354369     0.98800
O145        O  0.33627600  0.85563516  0.13579846    -0.81800
O146        O  0.34926302  0.89917552  0.16039335    -0.84400
C147        C  0.36020706  0.91583651  0.18234534     1.03300
O148        O  0.35693035  0.91242714  0.21613847    -0.77200
O149        O  0.37293920  0.88325800  0.24516929    -0.77300
C150        C  0.37439433  0.86494860  0.25198011     1.03300
Cr151      Cr  0.33116237  0.83524073  0.21053777     1.93700
Cr152      Cr  0.32024668  0.86908124  0.16840879     1.93200
Cr153      Cr  0.34147835  0.88197298  0.24556142     1.39100
O154        O  0.33108593  0.86253079  0.20804773    -1.22400
O155        O  0.15723208  0.97284012  0.33216872    -0.84700
O156        O  0.15143893  0.97278903  0.40570182    -0.81700
C157        C  0.15392107  0.95499666  0.41163701     0.98800
O158        O  0.17392368  0.95673913  0.40637329    -0.81700
O159        O  0.21935461  0.97218665  0.38042383    -0.84400
C160        C  0.22143421  0.96984651  0.34667111     1.03300
O161        O  0.21765294  0.98209089  0.32411943    -0.77200
O162        O  0.18725508  0.99456260  0.29581761    -0.77300
C163        C  0.16725160  0.97603581  0.30190359     1.03300
O164        O  0.17610534  0.02261611  0.33064863    -0.84700
O165        O  0.17894946  0.02264187  0.40444516    -0.81700
C166        C  0.18541559  0.02029985  0.43550885     0.98800
O167        O  0.19035007  0.00375827  0.44216657    -0.81800
O168        O  0.23377257  0.01756803  0.41539406    -0.84400
C169        C  0.24970461  0.02994902  0.39308897     1.03300
O170        O  0.24574442  0.02730532  0.35938209    -0.77200
O171        O  0.21439697  0.04130647  0.33391465    -0.77300
C172        C  0.19545754  0.04175049  0.32829699     1.03300
Cr173      Cr  0.16809384  0.99778957  0.36825152     1.93700
Cr174      Cr  0.20365724  0.98818665  0.40805431     1.93200
Cr175      Cr  0.21488160  0.01064742  0.33125707     1.39100
O176        O  0.19596546  0.99886889  0.36930020    -1.22400
O177        O  0.50362674  0.14536593  0.07125257    -0.84700
O178        O  0.50544370  0.14893707  0.99720745    -0.81700
C179        C  0.50507389  0.13084138  0.49484346     0.98800
O180        O  0.48613609  0.11175922  0.50043720    -0.81700
O181        O  0.44146490  0.07904199  0.02501476    -0.84400
C182        C  0.43943611  0.07445336  0.05855727     1.03300
O183        O  0.44286419  0.09012782  0.08145037    -0.77200
O184        O  0.47345757  0.13280234  0.10952213    -0.77300
C185        C  0.49506802  0.13844311  0.10239534     1.03300
O186        O  0.48120691  0.17283897  0.07508254    -0.84700
O187        O  0.47417466  0.16913806  0.50470711    -0.67300
C188        C  0.46725887  0.15994215  0.47391861     0.98800
O189        O  0.46562830  0.13987949  0.46606283    -0.81800
O190        O  0.42496045  0.10829508  0.99149197    -0.84400
C191        C  0.40919447  0.10549840  0.01372418     1.03300
O192        O  0.41321284  0.10705740  0.04760970    -0.77200
O193        O  0.44310080  0.15114934  0.07550685    -0.77300
C194        C  0.46123909  0.17098184  0.08053771     1.03300
Cr195      Cr  0.48910968  0.15666157  0.03611323     1.93700
Cr196      Cr  0.45492026  0.11121170  0.49959161     1.93200
Cr197      Cr  0.44449474  0.12097061  0.07563807     1.39100
O198        O  0.46273552  0.12882576  0.03685901    -1.22400
O199        O  0.84298035  0.02705504  0.08699224    -0.84700
O200        O  0.83856241  0.02851032  0.16096559    -0.81700
C201        C  0.82903145  0.02556533  0.19168204     0.98800
O202        O  0.80932708  0.00677177  0.19852886    -0.81700
O203        O  0.77790092  0.01753509  0.17083103    -0.84400
C204        C  0.77463946  0.03033875  0.14880123     1.03300
O205        O  0.77627393  0.02811865  0.11494393    -0.77200
O206        O  0.82086865  0.04334395  0.08812316    -0.77300
C207        C  0.84088134  0.04518359  0.08305733     1.03300
O208        O  0.81652114  0.97753511  0.08969985    -0.84700
O209        O  0.82079436  0.97907671  0.16397140    -0.81700
C210        C  0.80178768  0.95985828  0.16829702     0.98800
O211        O  0.78249820  0.95932095  0.16163105    -0.81800
O212        O  0.75004858  0.97214360  0.13648668    -0.84400
C213        C  0.74548308  0.96988385  0.10291608     1.03300
O214        O  0.76095515  0.98248175  0.08016364    -0.77200
O215        O  0.80385009  0.99560638  0.05224811    -0.77300
C216        C  0.80916261  0.97929170  0.05888784     1.03300
Cr217      Cr  0.82756455  0.00290549  0.12545526     1.93700
Cr218      Cr  0.78121609  0.98952889  0.16380337     1.93200
Cr219      Cr  0.79123522  0.01175439  0.08674399     1.39100
O220        O  0.79947011  0.00124241  0.12515740    -1.22400
O221        O  0.48970039  0.85020517  0.49521777    -0.84700
O222        O  0.49412170  0.85298449  0.42115564    -0.81700
C223        C  0.50349520  0.85883920  0.39031271     0.98800
O224        O  0.52502180  0.86371803  0.38493008    -0.81700
O225        O  0.55548553  0.90685422  0.41183967    -0.84400
C226        C  0.55818041  0.92301333  0.43335964     1.03300
O227        O  0.55525626  0.91911183  0.46711699    -0.77200
O228        O  0.50969900  0.88606075  0.99432605    -0.77300
C229        C  0.49001352  0.86760264  0.99918426     1.03300
O230        O  0.51737065  0.82629984  0.99529612    -0.84700
O231        O  0.51543698  0.82442632  0.42238514    -0.81700
C232        C  0.53528358  0.82573661  0.41813947     0.98800
O233        O  0.55361875  0.84531895  0.42356769    -0.81800
O234        O  0.58372677  0.88961016  0.44929936    -0.84400
C235        C  0.58743925  0.89218935  0.48314884     1.03300
O236        O  0.57154225  0.89054285  0.50424653    -0.77200
O237        O  0.52663397  0.85652797  0.03202985    -0.77300
C238        C  0.52283786  0.83543640  0.02630883     1.03300
Cr239      Cr  0.50696074  0.84168631  0.45881444     1.93700
Cr240      Cr  0.55299152  0.87578593  0.42042118     1.93200
Cr241      Cr  0.53975949  0.88466494  0.99729191     1.39100
O242        O  0.53395577  0.86907970  0.45832167    -1.22400
O243        O  0.69183998  0.18055952  0.32965149    -0.84700
O244        O  0.69297704  0.17763314  0.25636952    -0.81700
C245        C  0.69109330  0.16935600  0.22505322     0.98800
O246        O  0.67469818  0.14827996  0.21777681    -0.81700
O247        O  0.69034366  0.12074296  0.24805310    -0.84400
C248        C  0.69997695  0.11454593  0.27185026     1.03300
O249        O  0.69391825  0.11331165  0.30474275    -0.77200
O250        O  0.70843053  0.15839923  0.33148537    -0.77300
C251        C  0.70967900  0.17824088  0.33647574     1.03300
O252        O  0.64173291  0.15148311  0.32654767    -0.84700
O253        O  0.64267331  0.15535396  0.25296905    -0.81700
C254        C  0.62533017  0.13513348  0.24593727     0.98800
O255        O  0.62754876  0.11699257  0.25032784    -0.81800
O256        O  0.64399753  0.08762791  0.27783021    -0.84400
C257        C  0.63824145  0.08280121  0.31089687     1.03300
O258        O  0.64739916  0.09870853  0.33453327    -0.77200
O259        O  0.66118387  0.14129587  0.36475896    -0.77300
C260        C  0.64421497  0.14537007  0.35777549     1.03300
Cr261      Cr  0.66733321  0.16417334  0.29134917     1.93700
Cr262      Cr  0.65959430  0.11961601  0.25157639     1.93200
Cr263      Cr  0.67721921  0.12867370  0.33078657     1.39100
O264        O  0.66798725  0.13720154  0.29125315    -1.22400
O265        O  0.50913436  0.35628915  0.24828745    -0.84700
O266        O  0.50796098  0.35806999  0.32181545    -0.81700
C267        C  0.49980060  0.35699057  0.35309509     0.98800
O268        O  0.47918531  0.34004712  0.36137566    -0.81700
O269        O  0.45073290  0.35464822  0.33226829    -0.84400
C270        C  0.44368484  0.36385032  0.30909336     1.03300
O271        O  0.44176796  0.35749406  0.27620604    -0.77200
O272        O  0.48671895  0.37261770  0.24855785    -0.77300
C273        C  0.50672046  0.37432397  0.24341041     1.03300
O274        O  0.48011463  0.30556821  0.25254264    -0.84700
O275        O  0.48584577  0.30758056  0.32610584    -0.81700
C276        C  0.46569610  0.29032940  0.33371734     0.98800
O277        O  0.44759274  0.29249023  0.32935702    -0.81800
O278        O  0.41762031  0.30807027  0.30358686    -0.84400
C279        C  0.41240176  0.30177386  0.27078281     1.03300
O280        O  0.42786729  0.31090226  0.24654666    -0.77200
O281        O  0.47010559  0.32536789  0.21481252    -0.77300
C282        C  0.47275225  0.30749850  0.22193615     1.03300
Cr283      Cr  0.49382886  0.33187080  0.28721090     1.93700
Cr284      Cr  0.44993704  0.32421326  0.32865253     1.93200
Cr285      Cr  0.45742379  0.34116248  0.24940838     1.39100
O286        O  0.46682317  0.33242529  0.28848529    -1.22400
O287        O  0.17874768  0.15757055  0.08480667    -0.84700
O288        O  0.18017064  0.16034538  0.15932771    -0.81700
C289        C  0.18681965  0.16929323  0.19041230     0.98800
O290        O  0.19282754  0.19107916  0.19670148    -0.81700
O291        O  0.23675485  0.22070921  0.17168090    -0.84400
C292        C  0.25272470  0.22215745  0.15085788     1.03300
O293        O  0.24915261  0.21897872  0.11716356    -0.77200
O294        O  0.21679552  0.17471312  0.09073930    -0.77300
C295        C  0.19753327  0.15637068  0.08331705     1.03300
O296        O  0.16221372  0.19078052  0.08442301    -0.84700
O297        O  0.15412521  0.18404620  0.15807754    -0.81700
C298        C  0.15665346  0.20418163  0.16471904     0.98800
O299        O  0.17673990  0.22210051  0.16013776    -0.81800
O300        O  0.22198581  0.25072979  0.13395486    -0.84400
C301        C  0.22614630  0.25480849  0.10032634     1.03300
O302        O  0.22428355  0.23879573  0.07909470    -0.77200
O303        O  0.19274608  0.19701464  0.05014466    -0.77300
C304        C  0.17309927  0.19690168  0.05465887     1.03300
Cr305      Cr  0.17110255  0.17530837  0.12169889     1.93700
Cr306      Cr  0.20645450  0.21972253  0.16246722     1.93200
Cr307      Cr  0.21923309  0.20675328  0.08731928     1.39100
O308        O  0.19943432  0.20102100  0.12407576    -1.22400
O309        O  0.36059108  0.51128416  0.49588083    -0.84700
O310        O  0.36125625  0.50888090  0.42236122    -0.81700
C311        C  0.35886960  0.50014927  0.39124364     0.98800
O312        O  0.34066630  0.48033558  0.38350313    -0.81700
O313        O  0.35528843  0.45142499  0.41046185    -0.84400
C314        C  0.36498696  0.44448690  0.43294778     1.03300
O315        O  0.35986997  0.44318678  0.46633219    -0.77200
O316        O  0.37712482  0.49343838  0.99504214    -0.77300
C317        C  0.37707006  0.51271425  0.99967768     1.03300
O318        O  0.30849239  0.48233065  0.99078183    -0.84700
O319        O  0.31067283  0.48871092  0.42008510    -0.81700
C320        C  0.29276662  0.46881284  0.41308784     0.98800
O321        O  0.29403867  0.45019324  0.41800832    -0.81800
O322        O  0.30965799  0.41926835  0.44168096    -0.84400
C323        C  0.30462171  0.41400350  0.47476981     1.03300
O324        O  0.31417012  0.42951640  0.49884852    -0.77200
O325        O  0.32924863  0.47395520  0.02940378    -0.77300
C326        C  0.31150950  0.47683870  0.02215067     1.03300
Cr327      Cr  0.33562997  0.49621748  0.45792562     1.93700
Cr328      Cr  0.32535355  0.45145231  0.41651924     1.93200
Cr329      Cr  0.34663310  0.46247745  0.99580062     1.39100
O330        O  0.33497585  0.46856704  0.45653548    -1.22400
O331        O  0.49390696  0.64496077  0.17184799    -0.84700
O332        O  0.49063377  0.64403963  0.24557254    -0.81700
C333        C  0.49282207  0.62589318  0.25050455     0.98800
O334        O  0.51272371  0.62733338  0.24532676    -0.81700
O335        O  0.55850608  0.64324035  0.21998487    -0.84400
C336        C  0.55748134  0.63778609  0.18680486     1.03300
O337        O  0.55088480  0.64748833  0.16366448    -0.77200
O338        O  0.52379793  0.66415498  0.13426488    -0.77300
C339        C  0.50243537  0.64793747  0.14044578     1.03300
O340        O  0.51655058  0.69500615  0.17191806    -0.84700
O341        O  0.52023872  0.69473828  0.24521625    -0.81700
C342        C  0.52661770  0.69158349  0.27582070     0.98800
O343        O  0.52861655  0.67327273  0.28201323    -0.81800
O344        O  0.57171774  0.68870633  0.25278259    -0.84400
C345        C  0.58790996  0.69778405  0.22965591     1.03300
O346        O  0.58353714  0.69262687  0.19635886    -0.77200
O347        O  0.55490810  0.71047964  0.17033657    -0.77300
C348        C  0.53676459  0.71278316  0.16694330     1.03300
Cr349      Cr  0.50725424  0.66961679  0.20871457     1.93700
Cr350      Cr  0.54218471  0.65866619  0.24707819     1.93200
Cr351      Cr  0.55206446  0.67821047  0.16905295     1.39100
O352        O  0.53404314  0.66875725  0.20815440    -1.22400
O353        O  0.63994693  0.49127494  0.07754312    -0.84700
O354        O  0.63955964  0.48732723  0.00395435    -0.81700
C355        C  0.62454350  0.49055099  0.50007596     0.98800
O356        O  0.62698757  0.51099198  0.50436574    -0.81700
O357        O  0.64038614  0.55529241  0.03260122    -0.84400
C358        C  0.63807457  0.55677086  0.06643350     1.03300
O359        O  0.64999642  0.55214183  0.08832124    -0.77200
O360        O  0.66123656  0.52061234  0.11518931    -0.77300
C361        C  0.64272483  0.50073734  0.10821478     1.03300
O362        O  0.68964641  0.50936999  0.07830759    -0.84700
O363        O  0.69203779  0.51391829  0.50674562    -0.81700
C364        C  0.68929349  0.52002209  0.47564857     0.98800
O365        O  0.67300252  0.52519045  0.46931337    -0.81800
O366        O  0.68521049  0.56906327  0.99695123    -0.84400
C367        C  0.69793776  0.58460569  0.01961933     1.03300
O368        O  0.69544381  0.58009159  0.05325663    -0.77200
O369        O  0.70833151  0.54782149  0.07834817    -0.77300
C370        C  0.70846563  0.52869008  0.08358461     1.03300
Cr371      Cr  0.66481590  0.50263372  0.04109596     1.93700
Cr372      Cr  0.65912215  0.53983486  0.50331695     1.93200
Cr373      Cr  0.67807324  0.54884101  0.08066062     1.39100
O374        O  0.66627621  0.53071113  0.04180797    -1.22400
O375        O  0.81479294  0.84076715  0.34544098    -0.84700
O376        O  0.81753044  0.84249664  0.41880519    -0.81700
C377        C  0.79762261  0.84128866  0.42305986     0.98800
O378        O  0.77907120  0.82168060  0.41795910    -0.81700
O379        O  0.74894697  0.77624746  0.39115901    -0.84400
C380        C  0.74426774  0.77624069  0.35794406     1.03300
O381        O  0.76021964  0.78271721  0.33437376    -0.77200
O382        O  0.80376040  0.81171099  0.30590227    -0.77300
C383        C  0.80912960  0.83308045  0.31371626     1.03300
O384        O  0.84256800  0.81822217  0.34175182    -0.84700
O385        O  0.83786983  0.81206568  0.41480659    -0.81700
C386        C  0.82853278  0.80526915  0.44539032     0.98800
O387        O  0.80836262  0.80337349  0.45242476    -0.81800
O388        O  0.77921670  0.76075890  0.42216320    -0.84400
C389        C  0.77350557  0.74513894  0.39816616     1.03300
O390        O  0.77472830  0.75037846  0.36479824    -0.77200
O391        O  0.81995560  0.78001204  0.33832426    -0.77300
C392        C  0.84007757  0.79809740  0.33445892     1.03300
Cr393      Cr  0.82607728  0.82632104  0.38021763     1.93700
Cr394      Cr  0.78027456  0.79138598  0.41789717     1.93200
Cr395      Cr  0.79036936  0.78244723  0.33888773     1.39100
O396        O  0.79854319  0.79970384  0.37886443    -1.22400
C397        C  0.76671093  0.68464340  0.42146947    -0.27500
C398        C  0.74899081  0.67684008  0.44850304     0.06100
C399        C  0.73824187  0.69081906  0.45544674     0.25700
C400        C  0.74573719  0.71228923  0.43738705    -0.12000
C401        C  0.76371515  0.72036177  0.41118939    -0.26000
C402        C  0.77389438  0.70612411  0.40273505     0.36500
C403        C  0.74087801  0.65395971  0.46869809     0.06100
F404        F  0.72016195  0.68364699  0.47948253    -0.19700
H405        H  0.73760468  0.72296486  0.44432771     0.15900
F406        F  0.79153970  0.71353813  0.37788910    -0.23500
H407        H  0.77547122  0.67444897  0.41544513     0.17700
C408        C  0.73609790  0.63293675  0.45056399     0.25700
C409        C  0.72451592  0.61102265  0.46837939    -0.12000
C410        C  0.71512839  0.60856605  0.00517194    -0.26000
C411        C  0.72187584  0.62952222  0.02492192     0.36600
C412        C  0.73558013  0.65245145  0.50593938    -0.27600
F413        F  0.74088902  0.63315716  0.41486991    -0.19800
H414        H  0.72022477  0.59515847  0.45295083     0.15900
F415        F  0.71523377  0.62850476  0.05989695    -0.23500
H416        H  0.73982236  0.66837980  0.52111283     0.17700
C417        C  0.63732257  0.74211491  0.28881623    -0.27500
C418        C  0.65492664  0.73578578  0.28339332     0.06100
C419        C  0.65133979  0.71866294  0.25694129     0.25700
C420        C  0.63021478  0.70775772  0.23684819    -0.12000
C421        C  0.61218248  0.71338259  0.24343211    -0.26000
C422        C  0.61602237  0.73080569  0.26948504     0.36500
C423        C  0.67673424  0.74678280  0.30588139     0.06100
F424        F  0.66808318  0.71218970  0.25106490    -0.19700
H425        H  0.62735096  0.69389380  0.21773612     0.15900
F426        F  0.59872612  0.73621333  0.27723653    -0.23500
H427        H  0.63971757  0.75519672  0.30911866     0.17700
C428        C  0.69266158  0.77133881  0.30411612     0.25700
C429        C  0.71414885  0.78125893  0.32310558    -0.12000
C430        C  0.71968106  0.76703478  0.34520553    -0.26000
C431        C  0.70311388  0.74274098  0.34870881     0.36600
C432        C  0.68192163  0.73267550  0.32887401    -0.27600
F433        F  0.68799740  0.78547152  0.28250560    -0.19800
H434        H  0.72688677  0.79993193  0.31960082     0.15900
F435        F  0.70822797  0.72845631  0.36920464    -0.23500
H436        H  0.66973834  0.71376613  0.33088293     0.17700
C437        C  0.56554521  0.59578967  0.12454226    -0.27500
C438        C  0.58533819  0.59562822  0.13953089     0.06100
C439        C  0.59434101  0.60737672  0.17274455     0.25700
C440        C  0.58426137  0.61983481  0.18957330    -0.12000
C441        C  0.56518301  0.62093425  0.17348861    -0.26000
C442        C  0.55550755  0.60816482  0.14127021     0.36500
C443        C  0.59696599  0.58405342  0.11951985     0.06100
F444        F  0.61377049  0.60806171  0.18782168    -0.19700
H445        H  0.59221988  0.62970812  0.21405923     0.15900
F446        F  0.53657225  0.60807957  0.12539003    -0.23500
H447        H  0.55805015  0.58658857  0.09940858     0.17700
C448        C  0.60180949  0.56754455  0.13658407     0.25700
C449        C  0.61402787  0.55795116  0.11821358    -0.12000
C450        C  0.62179421  0.56449336  0.08234128    -0.26000
C451        C  0.61587311  0.58006842  0.06455121     0.36600
C452        C  0.60355033  0.58970299  0.08304292    -0.27600
F453        F  0.59474258  0.56065322  0.17108568    -0.19800
H454        H  0.61790424  0.54565182  0.13252953     0.15900
F455        F  0.62306352  0.58699867  0.03012326    -0.23500
H456        H  0.59986113  0.60227671  0.06921340     0.17700
C457        C  0.39202218  0.53124820  0.30578654    -0.27500
C458        C  0.41544632  0.54416799  0.31889064     0.06100
C459        C  0.42002653  0.54081127  0.35483693     0.25700
C460        C  0.40147449  0.52569531  0.37742269    -0.12000
C461        C  0.37796836  0.51349878  0.36483157    -0.26000
C462        C  0.37339393  0.51580833  0.32848268     0.36500
C463        C  0.43450605  0.56312402  0.29677157     0.06100
F464        F  0.44217069  0.55339844  0.36897612    -0.19700
H465        H  0.40542159  0.52403136  0.40532458     0.15900
F466        F  0.35086413  0.50438521  0.31558150    -0.23500
H467        H  0.38808903  0.53365175  0.27822621     0.17700
C468        C  0.45712710  0.56515973  0.29378239     0.25700
C469        C  0.47585621  0.58522458  0.27766010    -0.12000
C470        C  0.47239286  0.60360881  0.26417194    -0.26000
C471        C  0.44936020  0.60080457  0.26522493     0.36600
C472        C  0.43070603  0.58078726  0.28139059    -0.27600
F473        F  0.46122839  0.54793978  0.30699146    -0.19800
H474        H  0.49323336  0.58666715  0.27670876     0.15900
F475        F  0.44484824  0.61759850  0.25134219    -0.23500
H476        H  0.41345789  0.57959534  0.28327303     0.17700
C477        C  0.43869796  0.55638264  0.03630442    -0.27500
C478        C  0.43652762  0.57679332  0.04140636     0.06100
C479        C  0.41591757  0.57660695  0.02909402     0.25700
C480        C  0.39717019  0.55591952  0.01473287    -0.12000
C481        C  0.39847760  0.53487150  0.01188401    -0.26000
C482        C  0.41988536  0.53557091  0.02154380     0.36500
C483        C  0.45392726  0.59684116  0.06401673     0.06100
F484        F  0.41353889  0.59626471  0.03222572    -0.19700
H485        H  0.38128962  0.55629981  0.00667020     0.15900
F486        F  0.42237939  0.51601848  0.01804197    -0.23500
H487        H  0.45447044  0.55617351  0.04546429     0.17700
C488        C  0.44583337  0.60334944  0.09484750     0.25700
C489        C  0.46180602  0.62082016  0.11803605    -0.12000
C490        C  0.48639936  0.63226029  0.11159914    -0.26000
C491        C  0.49463104  0.62652019  0.07997424     0.36600
C492        C  0.47845039  0.60872646  0.05653756    -0.27600
F493        F  0.42245126  0.59185048  0.10378601    -0.19800
H494        H  0.45480716  0.62484969  0.14194439     0.15900
F495        F  0.51820150  0.63721060  0.07257159    -0.23500
H496        H  0.48504465  0.60398704  0.03287893     0.17700
C497        C  0.25648459  0.32194567  0.08448742    -0.27500
C498        C  0.25317715  0.32300956  0.04697397     0.06100
C499        C  0.23899174  0.30152422  0.02859615     0.25700
C500        C  0.22956740  0.27976527  0.04674584    -0.12000
C501        C  0.23369329  0.27858881  0.08385371    -0.26000
C502        C  0.24668486  0.30004353  0.10283307     0.36500
C503        C  0.26515328  0.34629387  0.02705670     0.06100
F504        F  0.23415274  0.30145008  0.99296136    -0.19700
H505        H  0.21920767  0.26361063  0.03137950     0.15900
F506        F  0.25099018  0.29987073  0.13860675    -0.23500
H507        H  0.26742966  0.33806711  0.09951056     0.17700
C508        C  0.26602935  0.36681702  0.04168567     0.25700
C509        C  0.27387922  0.38581956  0.51726501    -0.12000
C510        C  0.28843126  0.38938046  0.48703453    -0.26000
C511        C  0.28925517  0.37049587  0.97603321     0.36600
C512        C  0.27661493  0.34841323  0.99366197    -0.27600
F513        F  0.25445888  0.36569710  0.07282018    -0.19800
H514        H  0.27221139  0.40046272  0.52824808     0.15900
F515        F  0.30459123  0.37293104  0.44489429    -0.23500
H516        H  0.27660989  0.33311548  0.98179155     0.17700
C517        C  0.52611999  0.39299640  0.43976859    -0.27500
C518        C  0.54559104  0.41364755  0.42576922     0.06100
C519        C  0.54954209  0.41537634  0.38843610     0.25700
C520        C  0.53453695  0.39688318  0.36561126    -0.12000
C521        C  0.51499035  0.37608476  0.37917926    -0.26000
C522        C  0.51070834  0.37444244  0.41666255     0.36500
C523        C  0.56298034  0.43283410  0.44962214     0.06100
F524        F  0.56851437  0.43471832  0.37406502    -0.19700
H525        H  0.53836288  0.39895559  0.33697263     0.15900
F526        F  0.49203962  0.35485621  0.43103693    -0.23500
H527        H  0.52290439  0.39126376  0.46857435     0.17700
C528        C  0.56766739  0.45643109  0.44584085     0.25700
C529        C  0.58699187  0.47507335  0.46370651    -0.12000
C530        C  0.60225847  0.47058529  0.48514105    -0.26000
C531        C  0.59685653  0.44678303  0.49009695     0.36600
C532        C  0.57732205  0.42816866  0.47271973    -0.27600
F533        F  0.55402036  0.46150879  0.42382250    -0.19800
H534        H  0.58386241  0.48891845  0.96558232     0.15900
F535        F  0.61080771  0.44147006  0.51102092    -0.23500
H536        H  0.57413058  0.41017520  0.47579964     0.17700
C537        C  0.54388754  0.43619146  0.20353662    -0.27500
C538        C  0.56650334  0.43815207  0.20225475     0.06100
C539        C  0.56958681  0.41990806  0.21721868     0.25700
C540        C  0.55016036  0.39954424  0.23125771    -0.12000
C541        C  0.52725350  0.39694165  0.23085399    -0.26000
C542        C  0.52442502  0.41585666  0.21776989     0.36500
C543        C  0.58575703  0.45715371  0.18048127     0.06100
F544        F  0.59106966  0.42101052  0.21605370    -0.19700
H545        H  0.55299588  0.38549649  0.24162452     0.15900
F546        F  0.50275402  0.41435491  0.21718058    -0.23500
H547        H  0.54114355  0.45007550  0.19220235     0.17700
C548        C  0.58158511  0.45943228  0.14395602     0.25700
C549        C  0.60020100  0.47456714  0.12157385    -0.12000
C550        C  0.62348729  0.48788144  0.13483616    -0.26000
C551        C  0.62759182  0.48677015  0.17183505     0.36600
C552        C  0.60881483  0.47129344  0.19444130    -0.27600
F553        F  0.55978711  0.44573146  0.12920361    -0.19800
H554        H  0.59648621  0.47526440  0.09323386     0.15900
F555        F  0.64981707  0.49939585  0.18560177    -0.23500
H556        H  0.61237497  0.46979822  0.22256912     0.17700
C557        C  0.34538775  0.27010538  0.25778196    -0.27500
C558        C  0.34302501  0.25825704  0.22472954     0.06100
C559        C  0.36318174  0.25849444  0.21009495     0.25700
C560        C  0.38526910  0.27138716  0.22687887    -0.12000
C561        C  0.38796784  0.28437227  0.25875137    -0.26000
C562        C  0.36761253  0.28296594  0.27478315     0.36500
C563        C  0.31998269  0.24686424  0.20469238     0.06100
F564        F  0.36165171  0.24657554  0.17914050    -0.19700
H565        H  0.40058946  0.27188856  0.21410854     0.15900
F566        F  0.36941395  0.29533722  0.30533277    -0.23500
H567        H  0.33021481  0.27036166  0.26961835     0.17700
C568        C  0.29846112  0.23214988  0.22249064     0.25700
C569        C  0.27685860  0.22320895  0.20409866    -0.12000
C570        C  0.27606688  0.22852959  0.16743665    -0.26000
C571        C  0.29761940  0.24222577  0.14905977     0.36600
C572        C  0.31929707  0.25140151  0.16761175    -0.27600
F573        F  0.29825009  0.22648177  0.25778221    -0.19800
H574        H  0.26058448  0.21247986  0.21889138     0.15900
F575        F  0.29774118  0.24800885  0.11385368    -0.23500
H576        H  0.33554449  0.26285353  0.15323412     0.17700
C577        C  0.43584463  0.40506960  0.37308965    -0.27500
C578        C  0.41688060  0.40640099  0.35753572     0.06100
C579        C  0.40882893  0.39648029  0.32307035     0.25700
C580        C  0.41859730  0.38385822  0.30574358    -0.12000
C581        C  0.43663318  0.38120556  0.32251863    -0.26000
C582        C  0.44580353  0.39287154  0.35577508     0.36500
C583        C  0.40490845  0.41699590  0.37860880     0.06100
F584        F  0.39067714  0.39786924  0.30716327    -0.19700
H585        H  0.41120178  0.37511468  0.28029067     0.15900
F586        F  0.46393352  0.39177792  0.37239023    -0.23500
H587        H  0.44255572  0.41300026  0.39926534     0.17700
C588        C  0.39123444  0.40527190  0.40921112     0.25700
C589        C  0.37961287  0.41512468  0.42889582    -0.12000
C590        C  0.38140620  0.43676392  0.41820355    -0.26000
C591        C  0.39589615  0.44888147  0.38835463     0.36600
C592        C  0.40747779  0.43903769  0.36878279    -0.27600
F593        F  0.38827403  0.38375548  0.41899781    -0.19800
H594        H  0.36816384  0.40521862  0.45115955     0.15900
F595        F  0.39833514  0.47003359  0.37753756    -0.23500
H596        H  0.41825229  0.44848785  0.34568076     0.17700
C597        C  0.59109418  0.98985877  0.41552913    -0.27500
C598        C  0.58445827  0.99074236  0.37956896     0.06100
C599        C  0.56745624  0.96953887  0.36322414     0.25700
C600        C  0.55814904  0.94792837  0.38183767    -0.12000
C601        C  0.56543081  0.94679440  0.41727844    -0.26000
C602        C  0.58170829  0.96814965  0.43426636     0.36500
C603        C  0.59577246  0.01365482  0.35912420     0.06100
F604        F  0.55985841  0.96969485  0.32916641    -0.19700
H605        H  0.54550935  0.93182592  0.36808981     0.15900
F606        F  0.58969060  0.96790904  0.46800391    -0.23500
H607        H  0.60424286  0.00594502  0.42871285     0.17700
C608        C  0.59620923  0.03394395  0.37359302     0.25700
C609        C  0.60881495  0.05591608  0.35625412    -0.12000
C610        C  0.62133542  0.05837001  0.32394647    -0.26000
C611        C  0.61979790  0.03783087  0.30821370     0.36600
C612        C  0.60712503  0.01569724  0.32572576    -0.27600
F613        F  0.58463190  0.03258577  0.40482102    -0.19800
H614        H  0.60938820  0.07133302  0.36885180     0.15900
F615        F  0.63177003  0.03936426  0.27734447    -0.23500
H616        H  0.60702865  0.00030755  0.31395952     0.17700
C617        C  0.55644893  0.77306968  0.12329642    -0.27500
C618        C  0.53543962  0.77437043  0.12631904     0.06100
C619        C  0.51655530  0.75716239  0.14677070     0.25700
C620        C  0.51790924  0.73804626  0.16143516    -0.12000
C621        C  0.53806632  0.73549279  0.15600883    -0.26000
C622        C  0.55784129  0.75377882  0.13813204     0.36500
C623        C  0.53156022  0.79097626  0.10352182     0.06100
F624        F  0.49622736  0.75818359  0.15096803    -0.19700
H625        H  0.50263936  0.72465422  0.17590731     0.15900
F626        F  0.57782652  0.75229363  0.13289571    -0.23500
H627        H  0.57116958  0.78614294  0.10751918     0.17700
C628        C  0.54654435  0.81576280  0.10479091     0.25700
C629        C  0.54278594  0.83057833  0.08115385    -0.12000
C630        C  0.52440756  0.82075804  0.05554583    -0.26000
C631        C  0.50918247  0.79600255  0.05503562     0.36600
C632        C  0.51269617  0.78139979  0.07886670    -0.27600
F633        F  0.56485255  0.82554594  0.12851258    -0.19800
H634        H  0.55488544  0.84956718  0.08168533     0.15900
F635        F  0.49117526  0.79091849  0.53394301    -0.23500
H636        H  0.50103720  0.76234343  0.07725818     0.17700
C637        C  0.51661718  0.76331316  0.38541355    -0.27500
C638        C  0.53827343  0.76539108  0.37431150     0.06100
C639        C  0.55935793  0.78694448  0.38063331     0.25700
C640        C  0.55848520  0.80634995  0.39599137    -0.12000
C641        C  0.53659942  0.80460882  0.40530779    -0.26000
C642        C  0.51571207  0.78254483  0.40086987     0.36500
C643        C  0.53812700  0.74612504  0.35217116     0.06100
F644        F  0.58073394  0.78937213  0.37128947    -0.19700
H645        H  0.57488003  0.82292365  0.39962683     0.15900
F646        F  0.49416597  0.77960605  0.41036476    -0.23500
H647        H  0.50012189  0.74706163  0.38051059     0.17700
C648        C  0.52447116  0.72198386  0.36202714     0.25700
C649        C  0.52167595  0.70399556  0.33795649    -0.12000
C650        C  0.53202326  0.70987815  0.30358176    -0.26000
C651        C  0.54628315  0.73393173  0.29427961     0.36600
C652        C  0.54942877  0.75180770  0.31843270    -0.27600
F653        F  0.51332873  0.71580704  0.39447845    -0.19800
H654        H  0.51053863  0.68555758  0.34544878     0.15900
F655        F  0.55670724  0.74015660  0.26128457    -0.23500
H656        H  0.55967349  0.77014848  0.30989523     0.17700
C657        C  0.78391540  0.93102918  0.49128796    -0.27500
C658        C  0.80221507  0.92424727  0.98581649     0.06100
C659        C  0.82044255  0.93409106  0.01159588     0.25700
C660        C  0.82303965  0.95266063  0.03373059    -0.12000
C661        C  0.80757367  0.96202557  0.03098480    -0.26000
C662        C  0.78947066  0.95252201  0.00477661     0.36500
C663        C  0.79818571  0.90388409  0.46524670     0.06100
F664        F  0.83522307  0.92502667  0.01648358    -0.19700
H665        H  0.83699003  0.95940837  0.05382414     0.15900
F666        F  0.76895381  0.95408199  0.51994162    -0.23500
H667        H  0.76714094  0.92098232  0.47738943     0.17700
C668        C  0.77839441  0.88118636  0.47114826     0.25700
C669        C  0.77762329  0.86084815  0.45600425    -0.12000
C670        C  0.79662564  0.86276067  0.43506048    -0.26000
C671        C  0.81548077  0.88559709  0.42702285     0.36600
C672        C  0.81606712  0.90582514  0.44165100    -0.27600
F673        F  0.76058016  0.87843197  0.49347865    -0.19800
H674        H  0.76276522  0.84352952  0.46222838     0.15900
F675        F  0.83368523  0.88842254  0.40550689    -0.23500
H676        H  0.83524917  0.92367901  0.94180664     0.17700
C677        C  0.79803135  0.86018961  0.22947778    -0.27500
C678        C  0.80816510  0.88412423  0.24018392     0.06100
C679        C  0.81940242  0.89098051  0.27387841     0.25700
C680        C  0.82023031  0.87429494  0.29645759    -0.12000
C681        C  0.80967531  0.85017593  0.28649936    -0.26000
C682        C  0.79892655  0.84329568  0.25233309     0.36500
C683        C  0.80657146  0.90202489  0.21719416     0.06100
F684        F  0.82877530  0.91371781  0.28582170    -0.19700
H685        H  0.82880586  0.88037655  0.32238463     0.15900
F686        F  0.78879310  0.82032367  0.24140168    -0.23500
H687        H  0.78937805  0.85461727  0.20353854     0.17700
C688        C  0.82699175  0.92384745  0.21004788     0.25700
C689        C  0.82511647  0.94209582  0.19328886    -0.12000
C690        C  0.80288883  0.93909963  0.18300192    -0.26000
C691        C  0.78254254  0.91673277  0.18803352     0.36600
C692        C  0.78443581  0.89836945  0.20511242    -0.27600
F693        F  0.84880735  0.92775420  0.22003165    -0.19800
H694        H  0.84120668  0.95887568  0.18920447     0.15900
F695        F  0.76084923  0.91271696  0.17722079    -0.23500
H696        H  0.76850777  0.88161475  0.21019324     0.17700
C697        C  0.73161278  0.07890919  0.25794879    -0.27500
C698        C  0.74271974  0.08782557  0.22442936     0.06100
C699        C  0.74281656  0.10795248  0.21015576     0.25700
C700        C  0.73025910  0.11760000  0.22738096    -0.12000
C701        C  0.71752477  0.10757320  0.25942817    -0.26000
C702        C  0.71920664  0.08876223  0.27549628     0.36500
C703        C  0.75273937  0.07521569  0.20334315     0.06100
F704        F  0.75458478  0.11790572  0.17902823    -0.19700
H705        H  0.72968334  0.13243140  0.21477787     0.15900
F706        F  0.70738486  0.07872252  0.30653722    -0.23500
H707        H  0.73149557  0.06348797  0.26963280     0.17700
C708        C  0.76935228  0.06995073  0.21884400     0.25700
C709        C  0.77729246  0.05657501  0.19971688    -0.12000
C710        C  0.76872127  0.04785146  0.16482814    -0.26000
C711        C  0.75274615  0.05383437  0.14869140     0.36600
C712        C  0.74488760  0.06744945  0.16785790    -0.27600
F713        F  0.77776535  0.07756348  0.25262499    -0.19800
H714        H  0.78981237  0.05243789  0.21275872     0.15900
F715        F  0.74362224  0.04534181  0.11554442    -0.23500
H716        H  0.73189661  0.07117100  0.15549124     0.17700
C717        C  0.65305131  0.92214621  0.99737154    -0.27500
C718        C  0.65449721  0.91502171  0.03274466     0.06100
C719        C  0.63366287  0.89767902  0.04947936     0.25700
C720        C  0.63055332  0.90215172  0.47875167    -0.12000
C721        C  0.61070689  0.89776148  0.49976508    -0.26000
C722        C  0.63106634  0.91311117  0.97976698     0.36500
C723        C  0.67740920  0.92679238  0.05281330     0.06100
F724        F  0.63445404  0.88960204  0.08295305    -0.19700
H725        H  0.62900054  0.90024065  0.44972351     0.15900
F726        F  0.63022679  0.92154287  0.94662612    -0.23500
H727        H  0.66887567  0.93556116  0.98395523     0.17700
C728        C  0.69813649  0.92851859  0.03779225     0.25700
C729        C  0.71991762  0.94136943  0.05556553    -0.12000
C730        C  0.72161439  0.95284753  0.08863756    -0.26000
C731        C  0.70079240  0.95056846  0.10424265     0.36600
C732        C  0.67890346  0.93756379  0.08651072    -0.27600
F733        F  0.69738143  0.91801178  0.00571117    -0.19800
H734        H  0.73570260  0.94290000  0.04294617     0.15900
F735        F  0.70184551  0.96235645  0.13511381    -0.23500
H736        H  0.66322847  0.93678999  0.09835149     0.17700
C737        C  0.57918448  0.15205093  0.21752076    -0.27500
C738        C  0.56347059  0.13240928  0.19670939     0.06100
C739        C  0.56712148  0.11268330  0.19454900     0.25700
C740        C  0.58676353  0.11318428  0.21163069    -0.12000
C741        C  0.60311183  0.13335838  0.23109715    -0.26000
C742        C  0.59862403  0.15251874  0.23474549     0.36500
C743        C  0.54506415  0.13398462  0.17459007     0.06100
F744        F  0.55251739  0.09350674  0.17426905    -0.19700
H745        H  0.58966705  0.09816646  0.20846078     0.15900
F746        F  0.61315105  0.17192326  0.25471771    -0.23500
H747        H  0.57662191  0.16733196  0.21985573     0.17700
C748        C  0.52070725  0.11717505  0.17707997     0.25700
C749        C  0.50400980  0.11931563  0.15526968    -0.12000
C750        C  0.51146053  0.13790655  0.13008832    -0.26000
C751        C  0.53582017  0.15487103  0.12832559     0.36600
C752        C  0.55225500  0.15298113  0.15044516    -0.27600
F753        F  0.51310135  0.09878251  0.20058439    -0.19800
H754        H  0.48545529  0.10602811  0.15712963     0.15900
F755        F  0.54389012  0.17330125  0.10476428    -0.23500
H756        H  0.57085173  0.16616586  0.14807488     0.17700
C757        C  0.56950607  0.15411294  0.46906517    -0.27500
C758        C  0.56897666  0.13405289  0.45367246     0.06100
C759        C  0.54781032  0.11210233  0.45526500     0.25700
C760        C  0.52711845  0.11077899  0.46985762    -0.12000
C761        C  0.52728027  0.13134161  0.48286538    -0.26000
C762        C  0.54900327  0.15291046  0.48331021     0.36500
C763        C  0.58937095  0.13734920  0.43122839     0.06100
F764        F  0.54674632  0.09234824  0.44060587    -0.19700
H765        H  0.50927302  0.09395254  0.95985406     0.15900
F766        F  0.55044762  0.17317036  0.49655360    -0.23500
H767        H  0.58569954  0.17112238  0.46844316     0.17700
C768        C  0.59673421  0.15369201  0.40266535     0.25700
C769        C  0.61529555  0.15680588  0.38033048    -0.12000
C770        C  0.62705273  0.14369463  0.38561046    -0.26000
C771        C  0.62026694  0.12774778  0.41481710     0.36600
C772        C  0.60136345  0.12448757  0.43735365    -0.27600
F773        F  0.58526678  0.16602718  0.39535112    -0.19800
H774        H  0.62009951  0.16920873  0.35810875     0.15900
F775        F  0.63110083  0.11463069  0.42055715    -0.23500
H776        H  0.59598080  0.11187082  0.45934310     0.17700
C777        C  0.44852766  0.20238180  0.43701612    -0.27500
C778        C  0.45784851  0.20635700  0.40198235     0.06100
C779        C  0.46797364  0.19280964  0.38914450     0.25700
C780        C  0.46963321  0.17628527  0.41174178    -0.12000
C781        C  0.46169136  0.17355014  0.44755316    -0.26000
C782        C  0.45051552  0.18626785  0.45967629     0.36500
C783        C  0.45921743  0.22646360  0.38095830     0.06100
F784        F  0.47689701  0.19612246  0.35518257    -0.19700
H785        H  0.47830795  0.16670109  0.40197871     0.15900
F786        F  0.44223733  0.18372428  0.49401177    -0.23500
H787        H  0.44083033  0.21271437  0.44752354     0.17700
C788        C  0.43899878  0.22881603  0.37528628     0.25700
C789        C  0.44114144  0.24935753  0.35919462    -0.12000
C790        C  0.46351408  0.26808791  0.34892563    -0.26000
C791        C  0.48368008  0.26543309  0.35409558     0.36600
C792        C  0.48144762  0.24479662  0.36981970    -0.27600
F793        F  0.41721877  0.21135509  0.38568145    -0.19800
H794        H  0.42529565  0.25076836  0.35543237     0.15900
F795        F  0.50570505  0.28294837  0.34484490    -0.23500
H796        H  0.49728309  0.24351640  0.37458755     0.17700
C797        C  0.47853043  0.23408802  0.10836227    -0.27500
C798        C  0.45787018  0.23082961  0.12572126     0.06100
C799        C  0.43745171  0.20817852  0.12467953     0.25700
C800        C  0.43833406  0.18889731  0.10889290    -0.12000
C801        C  0.45954954  0.19182533  0.09381402    -0.26000
C802        C  0.47944865  0.21488371  0.09259497     0.36500
C803        C  0.45889870  0.25027566  0.14858594     0.06100
F804        F  0.41681257  0.20457094  0.13975460    -0.19700
H805        H  0.42261689  0.17151298  0.10957839     0.15900
F806        F  0.50006385  0.21888559  0.07691453    -0.23500
H807        H  0.49442953  0.25134426  0.10861903     0.17700
C808        C  0.45298452  0.24608345  0.18534786     0.25700
C809        C  0.45705177  0.26481939  0.20832477    -0.12000
C810        C  0.46695966  0.28821245  0.19539900    -0.26000
C811        C  0.47211356  0.29245399  0.15838891     0.36600
C812        C  0.46832708  0.27361564  0.13526084    -0.27600
F813        F  0.44467362  0.22407609  0.19965956    -0.19800
H814        H  0.45284937  0.26106398  0.23670212     0.15900
F815        F  0.48200993  0.31485813  0.14503228    -0.23500
H816        H  0.47325293  0.27730715  0.10710345     0.17700
C817        C  0.29715323  0.07033681  0.45926151    -0.27500
C818        C  0.31782962  0.07236364  0.44364818     0.06100
C819        C  0.31623289  0.06234919  0.40916973     0.25700
C820        C  0.29426462  0.04995687  0.39143239    -0.12000
C821        C  0.27344395  0.04698655  0.40792600    -0.26000
C822        C  0.27523218  0.05782575  0.44172855     0.36500
C823        C  0.34056057  0.08345539  0.46438352     0.06100
F824        F  0.33560423  0.06309883  0.39368249    -0.19700
H825        H  0.29332798  0.04145100  0.36582971     0.15900
F826        F  0.25560177  0.05580183  0.45832962    -0.23500
H827        H  0.29790094  0.07803051  0.48553348     0.17700
C828        C  0.36184407  0.10072663  0.44855570     0.25700
C829        C  0.38344920  0.10878948  0.46660711    -0.12000
C830        C  0.38582365  0.09975752  0.99774713    -0.26000
C831        C  0.36418914  0.08573533  0.01552365     0.36600
C832        C  0.34128402  0.07589021  0.49979675    -0.27600
F833        F  0.36180935  0.10962596  0.41541666    -0.19800
H834        H  0.39963853  0.12145607  0.45312693     0.15900
F835        F  0.36380294  0.07933553  0.05044576    -0.23500
H836        H  0.32511795  0.06271184  0.51269209     0.17700
C837        C  0.17899061  0.06895410  0.48197858    -0.27500
C838        C  0.19378233  0.07395703  0.51192473     0.06100
C839        C  0.20474473  0.06020138  0.51840520     0.25700
C840        C  0.20124004  0.04190230  0.49441172    -0.12000
C841        C  0.18695656  0.03736709  0.46360381    -0.26000
C842        C  0.17559426  0.05098878  0.45799084     0.36500
C843        C  0.19307699  0.09218982  0.04030491     0.06100
F844        F  0.21547554  0.06333191  0.05244987    -0.19700
H845        H  0.21026354  0.03182362  0.49928385     0.15900
F846        F  0.16135443  0.04725191  0.42900414    -0.23500
H847        H  0.17034109  0.07938167  0.47679722     0.17700
C848        C  0.21535482  0.11276168  0.04433476     0.25700
C849        C  0.21702448  0.13340905  0.05983713    -0.12000
C850        C  0.19649529  0.13386821  0.07130017    -0.26000
C851        C  0.17446942  0.11267852  0.06931251     0.36600
C852        C  0.17287958  0.09222147  0.05395698    -0.27600
F853        F  0.23601998  0.11894617  0.51013900    -0.19800
H854        H  0.23419889  0.14932315  0.06126327     0.15900
F855        F  0.15418905  0.11179105  0.08116343    -0.23500
H856        H  0.15558005  0.07655633  0.05125927     0.17700
C857        C  0.17322805  0.08433469  0.30378329    -0.27500
C858        C  0.19357118  0.10350298  0.28891239     0.06100
C859        C  0.21536031  0.10368082  0.29131251     0.25700
C860        C  0.21623606  0.08399461  0.30556918    -0.12000
C861        C  0.19540542  0.06390609  0.31765786    -0.26000
C862        C  0.17404695  0.06478051  0.31803172     0.36500
C863        C  0.19094717  0.12100736  0.26623767     0.06100
F864        F  0.23544169  0.12208603  0.27758235    -0.19700
H865        H  0.23296713  0.08402498  0.30556710     0.15900
F866        F  0.15365998  0.04642881  0.33115181    -0.23500
H867        H  0.15636519  0.08403494  0.30279799     0.17700
C868        C  0.17503799  0.11272871  0.23710390     0.25700
C869        C  0.17314702  0.12866062  0.21398934    -0.12000
C870        C  0.18707366  0.15334951  0.21904614    -0.26000
C871        C  0.20249887  0.16177684  0.24893063     0.36600
C872        C  0.20451961  0.14565882  0.27220742    -0.27600
F873        F  0.16209199  0.08911829  0.22983155    -0.19800
H874        H  0.16111498  0.12154723  0.19131893     0.15900
F875        F  0.21637177  0.18545106  0.25467957    -0.23500
H876        H  0.21683779  0.15238062  0.29456003     0.17700
C877        C  0.38990738  0.86600594  0.05629128    -0.27500
C878        C  0.41056265  0.86660388  0.06931369     0.06100
C879        C  0.41253514  0.86304898  0.10605352     0.25700
C880        C  0.39403219  0.85860267  0.12947576    -0.12000
C881        C  0.37303498  0.85762647  0.11690107    -0.26000
C882        C  0.37123464  0.86171627  0.07998835     0.36500
C883        C  0.42910070  0.86797624  0.04481952     0.06100
F884        F  0.43218297  0.86314289  0.11909852    -0.19700
H885        H  0.39625487  0.85585121  0.15769567     0.15900
F886        F  0.35140066  0.86106773  0.06669477    -0.23500
H887        H  0.38810164  0.86839115  0.02779364     0.17700
C888        C  0.42773636  0.84680586  0.03283016     0.25700
C889        C  0.44732280  0.84712491  0.01662693    -0.12000
C890        C  0.46883235  0.86856138  0.01240009    -0.26000
C891        C  0.46978773  0.88999806  0.02285197     0.36600
C892        C  0.45002578  0.88961272  0.03918722    -0.27600
F893        F  0.40794528  0.82562179  0.03915091    -0.19800
H894        H  0.44498697  0.83478046  0.49719455     0.15900
F895        F  0.49002918  0.91112709  0.01893749    -0.23500
H896        H  0.45139988  0.90603473  0.04899991     0.17700
C897        C  0.44797743  0.84332187  0.33786416    -0.27500
C898        C  0.45517050  0.86328061  0.31565987     0.06100
C899        C  0.47936083  0.88084720  0.31532154     0.25700
C900        C  0.49575278  0.87861957  0.33764453    -0.12000
C901        C  0.48814652  0.85906207  0.36091240    -0.26000
C902        C  0.46415570  0.84118646  0.36015148     0.36500
C903        C  0.43679004  0.86559202  0.29460220     0.06100
F904        F  0.48704996  0.90024293  0.29385774    -0.19700
H905        H  0.51406955  0.89272604  0.33813502     0.15900
F906        F  0.45614037  0.82190061  0.38200769    -0.23500
H907        H  0.42947955  0.82965653  0.33900296     0.17700
C908        C  0.41987954  0.84624122  0.27434363     0.25700
C909        C  0.40014625  0.84660901  0.25985351    -0.12000
C910        C  0.39684371  0.86635871  0.26471324    -0.26000
C911        C  0.41451307  0.88639844  0.28298463     0.36600
C912        C  0.43422735  0.88590940  0.29796643    -0.27600
F913        F  0.42217211  0.82666643  0.26923682    -0.19800
H914        H  0.38715115  0.83114333  0.24520766     0.15900
F915        F  0.41210947  0.90589580  0.28814325    -0.23500
H916        H  0.44688628  0.90096919  0.31367406     0.17700
C917        C  0.26095083  0.89697914  0.29217248    -0.27500
C918        C  0.25793074  0.91445060  0.27447335     0.06100
C919        C  0.26610693  0.92028292  0.23852292     0.25700
C920        C  0.27839350  0.90991091  0.22183618    -0.12000
C921        C  0.28269189  0.89354418  0.24061743    -0.26000
C922        C  0.27290347  0.88648038  0.27548917     0.36500
C923        C  0.24725547  0.92706732  0.29447216     0.06100
F924        F  0.26358446  0.93709148  0.22029411    -0.19700
H925        H  0.28571960  0.91571514  0.19509353     0.15900
F926        F  0.27549442  0.86980709  0.29406251    -0.23500
H927        H  0.25435943  0.89171196  0.31939793     0.17700
C928        C  0.22848479  0.92933664  0.27973109     0.25700
C929        C  0.21950709  0.94221440  0.29801718    -0.12000
C930        C  0.22875809  0.95299994  0.33165717    -0.26000
C931        C  0.24681739  0.94986479  0.34727932     0.36600
C932        C  0.25592534  0.93702205  0.32881557    -0.27600
F933        F  0.21869390  0.91900553  0.24768421    -0.19800
H934        H  0.20545919  0.94416105  0.28542725     0.15900
F935        F  0.25665831  0.96038142  0.37919933    -0.23500
H936        H  0.27034801  0.93549171  0.34087046     0.17700
C937        C  0.39103153  0.98224240  0.16402718    -0.27500
C938        C  0.40046746  0.98335248  0.12940015     0.06100
C939        C  0.39854332  0.96258255  0.11423790     0.25700
C940        C  0.38660215  0.94102475  0.13277087    -0.12000
C941        C  0.37623085  0.93960375  0.16677557    -0.26000
C942        C  0.37885880  0.96055300  0.18255278     0.36500
C943        C  0.41183006  0.00604546  0.10893415     0.06100
F944        F  0.40805960  0.96313917  0.08135463    -0.19700
H945        H  0.38489888  0.92513033  0.11995208     0.15900
F946        F  0.36833425  0.95979256  0.21458806    -0.23500
H947        H  0.39231934  0.99815636  0.17617393     0.17700
C948        C  0.40269957  0.00815856  0.07548079     0.25700
C949        C  0.41282690  0.03011998  0.05746606    -0.12000
C950        C  0.43205289  0.05031421  0.07270215    -0.26000
C951        C  0.44163733  0.04784681  0.10552506     0.36600
C952        C  0.43157523  0.02598665  0.12339574    -0.27600
F953        F  0.38313828  0.98932768  0.06133317    -0.19800
H954        H  0.40477636  0.03165279  0.03274040     0.15900
F955        F  0.46046885  0.06682079  0.12083739    -0.23500
H956        H  0.43900082  0.02468758  0.14891474     0.17700
C957        C  0.91638821  0.79409119  0.22896151    -0.27500
C958        C  0.92042530  0.79789149  0.26605701     0.06100
C959        C  0.94321790  0.80437072  0.27959656     0.25700
C960        C  0.96163324  0.80742444  0.25591621    -0.12000
C961        C  0.95760786  0.80447658  0.21847598    -0.26000
C962        C  0.93455189  0.79733596  0.20552015     0.36500
C963        C  0.90074369  0.79624000  0.28904089     0.06100
F964        F  0.94763489  0.80772776  0.31552871    -0.19700
H965        H  0.97909753  0.81274101  0.26666143     0.15900
F966        F  0.92940242  0.79349601  0.16980729    -0.23500
H967        H  0.89911127  0.78920920  0.21779967     0.17700
C968        C  0.90359496  0.81588795  0.30922826     0.25700
C969        C  0.88386212  0.81592565  0.32473551    -0.12000
C970        C  0.86081939  0.79643142  0.32054994    -0.26000
C971        C  0.85810368  0.77631720  0.30172060     0.36600
C972        C  0.87787109  0.77632261  0.28611962    -0.27600
F973        F  0.92516338  0.83575105  0.31181023    -0.19800
H974        H  0.88658489  0.83162877  0.33924028     0.15900
F975        F  0.83627332  0.75717704  0.29660224    -0.23500
H976        H  0.87519367  0.76105508  0.27041282     0.17700
C977        C  0.87075634  0.78713734  0.48449993    -0.27500
C978        C  0.87348831  0.79565204  0.51995396     0.06100
C979        C  0.85964488  0.80566090  0.53190105     0.25700
C980        C  0.84375552  0.80756869  0.50825515    -0.12000
C981        C  0.84198811  0.80003417  0.47234201    -0.26000
C982        C  0.85526741  0.78932981  0.46088254     0.36500
C983        C  0.88909330  0.79190703  0.04761941     0.06100
F984        F  0.86186366  0.81401619  0.56609056    -0.19700
H985        H  0.83376306  0.81595803  0.51743330     0.15900
F986        F  0.85371761  0.78149247  0.42642457    -0.23500
H987        H  0.87279458  0.77049370  0.98335998     0.17700
C988        C  0.89117306  0.77145038  0.05306905     0.25700
C989        C  0.91234602  0.77344238  0.06636216    -0.12000
C990        C  0.93190921  0.79584558  0.07420262    -0.26000
C991        C  0.92923998  0.81613204  0.07071724     0.36600
C992        C  0.90809563  0.81409710  0.05754190    -0.27600
F993        F  0.87297424  0.74960668  0.04457659    -0.19800
H994        H  0.91366479  0.75747318  0.06938113     0.15900
F995        F  0.94727285  0.83812768  0.07891408    -0.23500
H996        H  0.90881388  0.83332011  0.55487580     0.17700
C997        C  0.11777261  0.89628260  0.46098876    -0.27500
C998        C  0.09478898  0.89342979  0.45974010     0.06100
C999        C  0.09111196  0.90988129  0.43999593     0.25700
C1000       C  0.11029997  0.92936090  0.42341587    -0.12000
C1001       C  0.13352637  0.93282622  0.42602296    -0.26000
C1002       C  0.13694131  0.91567669  0.44428623     0.36500
C1003       C  0.07466531  0.87316941  0.98047316     0.06100
F1004       F  0.06932957  0.90811070  0.43890518    -0.19700
H1005       H  0.10706420  0.94218329  0.40940907     0.15900
F1006       F  0.15898231  0.91834989  0.44797429    -0.23500
H1007       H  0.11459486  0.87560740  0.95062581     0.17700
C1008       C  0.05048368  0.86294388  0.97095080     0.25700
C1009       C  0.03265814  0.84732005  0.99471500    -0.12000
C1010       C  0.03875672  0.84209936  0.02846727    -0.26000
C1011       C  0.06289257  0.85138026  0.03708321     0.36600
C1012       C  0.08060762  0.86652898  0.01315886    -0.27600
F1013       F  0.04413081  0.86870646  0.93925621    -0.19800
H1014       H  0.01418281  0.84040245  0.98765001     0.15900
F1015       F  0.06933158  0.84640234  0.06937407    -0.23500
H1016       H  0.09836213  0.88946857  0.53098773     0.17700
C1017       C  0.12732409  0.91614217  0.26113184    -0.27500
C1018       C  0.12560520  0.92186073  0.22528350     0.06100
C1019       C  0.13943191  0.94552237  0.21353862     0.25700
C1020       C  0.15428801  0.96328323  0.23793410    -0.12000
C1021       C  0.15488077  0.95758792  0.27431060    -0.26000
C1022       C  0.14165374  0.93373948  0.28546232     0.36500
C1023       C  0.10702156  0.90328080  0.20251856     0.06100
F1024       F  0.13806601  0.95147367  0.17888554    -0.19700
H1025       H  0.16431116  0.98153320  0.22891053     0.15900
F1026       F  0.14203447  0.92747243  0.32032097    -0.23500
H1027       H  0.11657619  0.89810975  0.27079998     0.17700
C1028       C  0.10571707  0.88104960  0.19844818     0.25700
C1029       C  0.08511029  0.86168893  0.18486579    -0.12000
C1030       C  0.06540783  0.86415256  0.17540308    -0.26000
C1031       C  0.06742503  0.88689488  0.17731328     0.36600
C1032       C  0.08807172  0.90621016  0.19074080    -0.27600
F1033       F  0.12400015  0.87786341  0.20919813    -0.19800
H1034       H  0.08425981  0.84456535  0.18312196     0.15900
F1035       F  0.04916821  0.89040733  0.16758939    -0.23500
H1036       H  0.08866702  0.92314510  0.19406933     0.17700
C1037       C  0.07704339  0.72899422  0.99616693    -0.27500
C1038       C  0.08191186  0.73533614  0.03298987     0.06100
C1039       C  0.09725024  0.72925778  0.05106544     0.25700
C1040       C  0.11129881  0.72355337  0.52347541    -0.12000
C1041       C  0.10179513  0.71166397  0.49058464    -0.26000
C1042       C  0.08659952  0.71625512  0.97829108     0.36500
C1043       C  0.07053919  0.74753914  0.05276754     0.06100
F1044       F  0.10323587  0.73550608  0.08606662    -0.19700
H1045       H  0.12591510  0.72263330  0.53609305     0.15900
F1046       F  0.07311624  0.70235909  0.44355456    -0.23500
H1047       H  0.06513248  0.73318450  0.98146867     0.17700
C1048       C  0.06923085  0.76672403  0.03725560     0.25700
C1049       C  0.05704466  0.77677818  0.05485550    -0.12000
C1050       C  0.04619199  0.76839526  0.08875030    -0.26000
C1051       C  0.04875500  0.75026254  0.10538175     0.36600
C1052       C  0.06052082  0.73981128  0.08739405    -0.27600
F1053       F  0.07975178  0.77583173  0.00503005    -0.19800
H1054       H  0.05565598  0.79094201  0.04149721     0.15900
F1055       F  0.03860944  0.74158029  0.13795272    -0.23500
H1056       H  0.06103593  0.72502206  0.10013386     0.17700
C1057       C  0.24505857  0.75786992  0.13176418    -0.27500
C1058       C  0.22522619  0.76031080  0.12367666     0.06100
C1059       C  0.22562671  0.78170885  0.13201454     0.25700
C1060       C  0.24596153  0.80066132  0.14702027    -0.12000
C1061       C  0.26628440  0.79864639  0.15373531    -0.26000
C1062       C  0.26544136  0.77679661  0.14655469     0.36500
C1063       C  0.20564440  0.74156798  0.10247181     0.06100
F1064       F  0.20652886  0.78442168  0.12488897    -0.19700
H1065       H  0.24596211  0.81710447  0.15260724     0.15900
F1066       F  0.28450487  0.77383280  0.15262200    -0.23500
H1067       H  0.24513969  0.74159304  0.12508766     0.17700
C1068       C  0.20081763  0.74693194  0.06791209     0.25700
C1069       C  0.18547041  0.72875525  0.04509157    -0.12000
C1070       C  0.17467792  0.70491656  0.05613301    -0.26000
C1071       C  0.17824116  0.69952689  0.09143171     0.36600
C1072       C  0.19388034  0.71782564  0.11438699    -0.27600
F1073       F  0.21248062  0.76951461  0.05505514    -0.19800
H1074       H  0.21400979  0.71717987  0.51431492     0.15900
F1075       F  0.16820011  0.67662436  0.10263088    -0.23500
H1076       H  0.19758402  0.71342529  0.14090048     0.17700
C1077       C  0.20925928  0.77001270  0.37086711    -0.27500
C1078       C  0.23216737  0.77269465  0.36923105     0.06100
C1079       C  0.23586801  0.75465774  0.38362019     0.25700
C1080       C  0.21685253  0.73396283  0.39759277    -0.12000
C1081       C  0.19369501  0.73068239  0.39751916    -0.26000
C1082       C  0.19016121  0.74921156  0.38467373     0.36500
C1083       C  0.25130419  0.79245457  0.34826659     0.06100
F1084       F  0.25757945  0.75628451  0.38208749    -0.19700
H1085       H  0.22022003  0.72018755  0.40765128     0.15900
F1086       F  0.16815943  0.74691614  0.38397144    -0.23500
H1087       H  0.20599147  0.78373531  0.36028049     0.17700
C1088       C  0.24682033  0.79674913  0.31272646     0.25700
C1089       C  0.26554189  0.81162215  0.29025501    -0.12000
C1090       C  0.28906668  0.82271015  0.30264295    -0.26000
C1091       C  0.29355837  0.82009329  0.33886590     0.36600
C1092       C  0.27473970  0.80498203  0.36152551    -0.27600
F1093       F  0.22460363  0.78506371  0.29861140    -0.19800
H1094       H  0.26174250  0.81368608  0.26244876     0.15900
F1095       F  0.31615283  0.83056487  0.35146773    -0.23500
H1096       H  0.27858339  0.80221620  0.38893672     0.17700
C1097       C  0.89758901  0.63418271  0.20085486    -0.27500
C1098       C  0.91556880  0.65454918  0.21770788     0.06100
C1099       C  0.92260435  0.65236236  0.25290945     0.25700
C1100       C  0.91253622  0.63011452  0.26999706    -0.12000
C1101       C  0.89547899  0.60957698  0.25225455    -0.26000
C1102       C  0.88769377  0.61197475  0.21774657     0.36500
C1103       C  0.92730270  0.67780113  0.19823215     0.06100
F1104       F  0.94022441  0.67147771  0.27001546    -0.19700
H1105       H  0.91906507  0.62876826  0.29627513     0.15900
F1106       F  0.87077881  0.59271328  0.19990929    -0.23500
H1107       H  0.89139568  0.63540135  0.17424304     0.17700
C1108       C  0.93592398  0.67973727  0.16265021     0.25700
C1109       C  0.94862327  0.70205655  0.14588288    -0.12000
C1110       C  0.95304856  0.72285449  0.16424691    -0.26000
C1111       C  0.94328357  0.72068959  0.19908205     0.36600
C1112       C  0.93061734  0.69847542  0.21568871    -0.27600
F1113       F  0.93322335  0.66023184  0.14475626    -0.19800
H1114       H  0.95596298  0.70316127  0.11923013     0.15900
F1115       F  0.94626742  0.74014634  0.21751551    -0.23500
H1116       H  0.92361578  0.69747321  0.24257606     0.17700
C1117       C  0.76860141  0.54691023  0.12669178    -0.27500
C1118       C  0.76830953  0.52502583  0.12770343     0.06100
C1119       C  0.74919623  0.50505529  0.11173489     0.25700
C1120       C  0.73029356  0.50669698  0.09665759    -0.12000
C1121       C  0.72992300  0.52827776  0.09701779    -0.26000
C1122       C  0.74961598  0.54859586  0.11147566     0.36500
C1123       C  0.78615523  0.52227778  0.14928992     0.06100
F1124       F  0.74854607  0.48373957  0.11145460    -0.19700
H1125       H  0.71565037  0.49082541  0.08526582     0.15900
F1126       F  0.75009389  0.56981169  0.11247484    -0.23500
H1127       H  0.78299835  0.56245320  0.13921629     0.17700
C1128       C  0.81078322  0.53709239  0.14450616     0.25700
C1129       C  0.82695811  0.53499915  0.16744253    -0.12000
C1130       C  0.81875375  0.51837162  0.19571347    -0.26000
C1131       C  0.79410452  0.50298845  0.19936660     0.36600
C1132       C  0.77813856  0.50500572  0.17648767    -0.27600
F1133       F  0.81914402  0.55369918  0.11800179    -0.19800
H1134       H  0.84579945  0.54709260  0.16416484     0.15900
F1135       F  0.78527170  0.48629428  0.22579131    -0.23500
H1136       H  0.75929513  0.49349575  0.18088696     0.17700
C1137       C  0.73201564  0.50743838  0.42416653    -0.27500
C1138       C  0.74159168  0.52613143  0.39920558     0.06100
C1139       C  0.73239234  0.54180807  0.39740552     0.25700
C1140       C  0.71425478  0.53902218  0.42103732    -0.12000
C1141       C  0.70542157  0.52082503  0.44695047    -0.26000
C1142       C  0.71424128  0.50483309  0.44792265     0.36500
C1143       C  0.76174644  0.52919620  0.37658955     0.06100
F1144       F  0.74105820  0.55983327  0.37311733    -0.19700
H1145       H  0.70784465  0.55166261  0.42014575     0.15900
F1146       F  0.70596859  0.48688134  0.47236428    -0.23500
H1147       H  0.73891151  0.49521593  0.42607899     0.17700
C1148       C  0.78369871  0.55036739  0.37762742     0.25700
C1149       C  0.80374259  0.55135881  0.36149147    -0.12000
C1150       C  0.80220410  0.53119630  0.34452525    -0.26000
C1151       C  0.77989356  0.51049457  0.34172707     0.36600
C1152       C  0.75993447  0.50958274  0.35763461    -0.27600
F1153       F  0.78618202  0.56947734  0.39646443    -0.19800
H1154       H  0.82068061  0.56747659  0.36393922     0.15900
F1155       F  0.77739962  0.49087569  0.32438812    -0.23500
H1156       H  0.74314223  0.49319207  0.35634442     0.17700
C1157       C  0.96765060  0.56634097  0.38230607    -0.27500
C1158       C  0.98856727  0.58316934  0.36550322     0.06100
C1159       C  0.98756261  0.58959440  0.32946601     0.25700
C1160       C  0.96562977  0.58036201  0.31146555    -0.12000
C1161       C  0.94447316  0.56443875  0.32910282    -0.26000
C1162       C  0.94592190  0.55685106  0.36434332     0.36500
C1163       C  0.01115357  0.59431518  0.38620965     0.06100
F1164       F  0.00763446  0.60569359  0.31236755    -0.19700
H1165       H  0.96508925  0.58649004  0.28450454     0.15900
F1166       F  0.92616131  0.54053374  0.38194887    -0.23500
H1167       H  0.96812341  0.56075595  0.40968538     0.17700
C1168       C  0.01407736  0.60858472  0.41667716     0.25700
C1169       C  0.03595912  0.62016368  0.43484175    -0.12000
C1170       C  0.05518957  0.61760706  0.42293668    -0.26000
C1171       C  0.05171747  0.60221583  0.39370148     0.36600
C1172       C  0.02996763  0.59081443  0.37550578    -0.27600
F1173       F  0.99617284  0.61236097  0.42758515    -0.19800
H1174       H  0.03828917  0.63222331  0.45675261     0.15900
F1175       F  0.06970322  0.59879594  0.38198243    -0.23500
H1176       H  0.02791260  0.57952332  0.35261706     0.17700
C1177       C  0.76743707  0.21481867  0.38763128    -0.27500
C1178       C  0.76978478  0.23760870  0.38621720     0.06100
C1179       C  0.75332868  0.24099546  0.36608950     0.25700
C1180       C  0.73433243  0.22171504  0.34904885    -0.12000
C1181       C  0.73133710  0.19867192  0.35167893    -0.26000
C1182       C  0.74845470  0.19550105  0.37051122     0.36500
C1183       C  0.78752677  0.25699811  0.40922912     0.06100
F1184       F  0.75473072  0.26263653  0.36482141    -0.19700
H1185       H  0.72154555  0.22474443  0.33455361     0.15900
F1186       F  0.74624385  0.17360800  0.37404125    -0.23500
H1187       H  0.77994198  0.21185446  0.40306401     0.17700
C1188       C  0.78747053  0.25341726  0.44655226     0.25700
C1189       C  0.80247799  0.27203625  0.46902784    -0.12000
C1190       C  0.81802425  0.29470787  0.45502550    -0.26000
C1191       C  0.81882040  0.29821599  0.41752792     0.36600
C1192       C  0.80344808  0.27947858  0.39482796    -0.27600
F1193       F  0.77205841  0.23217347  0.46159916    -0.19800
H1194       H  0.79895217  0.26706619  0.98633680     0.15900
F1195       F  0.83360822  0.31983583  0.40306974    -0.23500
H1196       H  0.80374072  0.28255291  0.36607299     0.17700
C1197       C  0.76113360  0.25240787  0.11174179    -0.27500
C1198       C  0.76272171  0.23310104  0.12543498     0.06100
C1199       C  0.78388424  0.23231802  0.12123990     0.25700
C1200       C  0.80360266  0.25123091  0.10468128    -0.12000
C1201       C  0.80244638  0.27123263  0.09253372    -0.26000
C1202       C  0.78069665  0.27128754  0.09535959     0.36500
C1203       C  0.74385585  0.21633432  0.14957487     0.06100
F1204       F  0.78592281  0.21403459  0.13528853    -0.19700
H1205       H  0.82001246  0.25068626  0.10282596     0.15900
F1206       F  0.77842499  0.28994452  0.08354613    -0.23500
H1207       H  0.74499499  0.25333042  0.11526004     0.17700
C1208       C  0.74203531  0.22411209  0.18404220     0.25700
C1209       C  0.72456600  0.20875555  0.20769755    -0.12000
C1210       C  0.70835369  0.18519163  0.19761545    -0.26000
C1211       C  0.70993401  0.17747638  0.16264095     0.36600
C1212       C  0.72771921  0.19302182  0.13881375    -0.27600
F1213       F  0.75751952  0.24656709  0.19506723    -0.19800
H1214       H  0.72398692  0.21543227  0.23426401     0.15900
F1215       F  0.69465313  0.15500000  0.15164702    -0.23500
H1216       H  0.72892652  0.18693406  0.11208566     0.17700
C1217       C  0.89581556  0.45610750  0.19976612    -0.27500
C1218       C  0.87683053  0.43278906  0.20338894     0.06100
C1219       C  0.85796312  0.42850469  0.22653437     0.25700
C1220       C  0.85720564  0.44748252  0.24335457    -0.12000
C1221       C  0.87532017  0.47103730  0.23766731    -0.26000
C1222       C  0.89520800  0.47511459  0.21692441     0.36500
C1223       C  0.87466554  0.41397722  0.17829868     0.06100
F1224       F  0.83929315  0.40622346  0.23045268    -0.19700
H1225       H  0.84187517  0.44380897  0.25966287     0.15900
F1226       F  0.91320139  0.49752193  0.21099635    -0.23500
H1227       H  0.91051882  0.45971562  0.18201349     0.17700
C1228       C  0.87387583  0.41744411  0.14111985     0.25700
C1229       C  0.86948453  0.39926138  0.11698295    -0.12000
C1230       C  0.86570854  0.37704218  0.12909662    -0.26000
C1231       C  0.86707617  0.37364432  0.16636269     0.36600
C1232       C  0.87132103  0.39198925  0.19080078    -0.27600
F1233       F  0.87621720  0.43812542  0.12813958    -0.19800
H1234       H  0.86878735  0.40262256  0.08851129     0.15900
F1235       F  0.86362083  0.35253565  0.17923371    -0.23500
H1236       H  0.87171227  0.38897916  0.21945733     0.17700
C1237       C  0.85328090  0.42872394  0.47966438    -0.27500
C1238       C  0.87473475  0.44531612  0.46367259     0.06100
C1239       C  0.89451122  0.44187020  0.46594844     0.25700
C1240       C  0.89222665  0.42112594  0.48133539    -0.12000
C1241       C  0.87017319  0.40347266  0.49456496    -0.26000
C1242       C  0.85093879  0.40795286  0.49501340     0.36500
C1243       C  0.87491485  0.46333300  0.43903013     0.06100
F1244       F  0.91566353  0.45797025  0.45144224    -0.19700
H1245       H  0.90772404  0.41480938  0.96346067     0.15900
F1246       F  0.82958162  0.39190481  0.50897605    -0.23500
H1247       H  0.83786153  0.43109712  0.47813640     0.17700
C1248       C  0.87953629  0.46220917  0.40232647     0.25700
C1249       C  0.87626382  0.47641158  0.37754565    -0.12000
C1250       C  0.86811378  0.49196636  0.38853910    -0.26000
C1251       C  0.86459760  0.49408209  0.42551253     0.36600
C1252       C  0.86771771  0.47956435  0.45058471    -0.27600
F1253       F  0.88556473  0.44609459  0.38998219    -0.19800
H1254       H  0.87938692  0.47460142  0.34928466     0.15900
F1255       F  0.85692448  0.50905942  0.43712264    -0.23500
H1256       H  0.86388984  0.48046854  0.47880974     0.17700
C1257       C  0.92785943  0.23294285  0.46499437    -0.27500
C1258       C  0.92879986  0.25355522  0.45114430     0.06100
C1259       C  0.94197991  0.26359557  0.41929621     0.25700
C1260       C  0.95405590  0.25322396  0.40207789    -0.12000
C1261       C  0.95355008  0.23291645  0.41657587    -0.26000
C1262       C  0.94006262  0.22275791  0.44808693     0.36500
C1263       C  0.91631397  0.26457091  0.47039914     0.06100
F1264       F  0.94422821  0.28413467  0.40588422    -0.19700
H1265       H  0.96478557  0.26176553  0.37850629     0.15900
F1266       F  0.93893031  0.20304207  0.46294626    -0.23500
H1267       H  0.91774054  0.22476367  0.48920998     0.17700
C1268       C  0.90099252  0.27034423  0.45170694     0.25700
C1269       C  0.88800418  0.27448657  0.96479648    -0.12000
C1270       C  0.89653613  0.28551122  0.99853250    -0.26000
C1271       C  0.90894360  0.28097621  0.52555045     0.36600
C1272       C  0.91958959  0.26935324  0.50773097    -0.27600
F1273       F  0.89618537  0.26483449  0.41624143    -0.19800
H1274       H  0.87366486  0.27558535  0.95155314     0.15900
F1275       F  0.91341430  0.28620121  0.56113309    -0.23500
H1276       H  0.93105799  0.26476987  0.52288065     0.17700
C1277       C  0.06233070  0.21037122  0.23246892    -0.27500
C1278       C  0.07612080  0.19945361  0.23909400     0.06100
C1279       C  0.07047920  0.18412157  0.26869603     0.25700
C1280       C  0.05174554  0.18013434  0.29167018    -0.12000
C1281       C  0.03793999  0.19118812  0.28570626    -0.26000
C1282       C  0.04329760  0.20622803  0.25545784     0.36500
C1283       C  0.09610330  0.20327472  0.21510722     0.06100
F1284       F  0.08342392  0.17325608  0.27575036    -0.19700
H1285       H  0.04825640  0.16851027  0.31458926     0.15900
F1286       F  0.03074834  0.21752775  0.24873009    -0.23500
H1287       H  0.06636145  0.22213373  0.20959433     0.17700
C1288       C  0.09328130  0.18535384  0.19095841     0.25700
C1289       C  0.11296153  0.18660703  0.17327454    -0.12000
C1290       C  0.13597329  0.20574920  0.17921239    -0.26000
C1291       C  0.13862054  0.22451809  0.20166960     0.36600
C1292       C  0.11879746  0.22315125  0.21964096    -0.27600
F1293       F  0.07157212  0.16604881  0.18576224    -0.19800
H1294       H  0.11026397  0.17204601  0.15579032     0.15900
F1295       F  0.16044007  0.24335380  0.20814075    -0.23500
H1296       H  0.12131927  0.23705417  0.23841253     0.17700
C1297       C  0.13912507  0.19274441  0.97006470    -0.27500
C1298       C  0.12944459  0.20729990  0.97960048     0.06100
C1299       C  0.13770797  0.22141009  0.01078837     0.25700
C1300       C  0.15366457  0.21927762  0.03365615    -0.12000
C1301       C  0.16195090  0.20340323  0.02554887    -0.26000
C1302       C  0.15558869  0.19104130  0.99267913     0.36500
C1303       C  0.10350785  0.19752374  0.45772579     0.06100
F1304       F  0.08878080  0.16180926  0.51032041    -0.19700
H1305       H  0.15846386  0.22896990  0.05891741     0.15900
F1306       F  0.16350849  0.17572901  0.98412415    -0.23500
H1307       H  0.13297370  0.18178783  0.94608999     0.17700
C1308       C  0.10033323  0.21712521  0.46499186     0.25700
C1309       C  0.08036470  0.21773941  0.45170074    -0.12000
C1310       C  0.06320792  0.19872314  0.43121374    -0.26000
C1311       C  0.06737959  0.17996630  0.42179835     0.36600
C1312       C  0.08728346  0.17935635  0.43515406    -0.27600
F1313       F  0.12758681  0.24636472  0.94584544    -0.19800
H1314       H  0.07769192  0.23246718  0.45902380     0.15900
F1315       F  0.05197983  0.16196528  0.40024858    -0.23500
H1316       H  0.08951139  0.16416656  0.42920433     0.17700
C1317       C  0.94752662  0.13746884  0.53807785    -0.27500
C1318       C  0.92321882  0.12514524  0.52922128     0.06100
C1319       C  0.91620285  0.12863950  0.49494117     0.25700
C1320       C  0.93317707  0.14307206  0.46948395    -0.12000
C1321       C  0.95751862  0.15489115  0.47781395    -0.26000
C1322       C  0.96454893  0.15251811  0.51277429     0.36500
C1323       C  0.90166670  0.10747547  0.04129391     0.06100
F1324       F  0.89295864  0.11691421  0.48528560    -0.19700
H1325       H  0.92729586  0.14471449  0.44283313     0.15900
F1326       F  0.98789244  0.16355162  0.52171873    -0.23500
H1327       H  0.94840711  0.13749606  0.05880583     0.17700
C1328       C  0.90413228  0.08917970  0.05741375     0.25700
C1329       C  0.88441124  0.06956970  0.07230205    -0.12000
C1330       C  0.86182338  0.06775713  0.07154224    -0.26000
C1331       C  0.85975594  0.08700825  0.05811295     0.36600
C1332       C  0.87953605  0.10662476  0.04296121    -0.27600
F1333       F  0.92664968  0.08492406  0.55221101    -0.19800
H1334       H  0.88670335  0.05530302  0.08319585     0.15900
F1335       F  0.83849199  0.08639322  0.05779076    -0.23500
H1336       H  0.87735776  0.12070340  0.03102721     0.17700
C1337       C  0.90719306  0.09638685  0.30497815    -0.27500
C1338       C  0.89033920  0.10096133  0.28862013     0.06100
C1339       C  0.89362484  0.12417844  0.29042056     0.25700
C1340       C  0.91391123  0.14254016  0.30696547    -0.12000
C1341       C  0.93142097  0.13818700  0.32178654    -0.26000
C1342       C  0.92753561  0.11468328  0.32112562     0.36500
C1343       C  0.87141301  0.08216433  0.26587938     0.06100
F1344       F  0.87745674  0.12920804  0.27551926    -0.19700
H1345       H  0.91623060  0.16030144  0.30722333     0.15900
F1346       F  0.94366551  0.10932129  0.33524596    -0.23500
H1347       H  0.90519776  0.07875762  0.30367687     0.17700
C1348       C  0.87004208  0.08657646  0.22913431     0.25700
C1349       C  0.85537718  0.06810557  0.20602789    -0.12000
C1350       C  0.84161087  0.04470546  0.21873258    -0.26000
C1351       C  0.84179121  0.04036083  0.25587646     0.36600
C1352       C  0.85682756  0.05895628  0.27917621    -0.27600
F1353       F  0.88426266  0.10842114  0.21486923    -0.19800
H1354       H  0.85540036  0.07203372  0.17762824     0.15900
F1355       F  0.82868038  0.01804854  0.26923202    -0.23500
H1356       H  0.85767576  0.05511966  0.30737198     0.17700
C1357       C  0.98611868  0.39196940  0.07151521    -0.27500
C1358       C  0.98781881  0.40317581  0.10492414     0.06100
C1359       C  0.96772844  0.40355897  0.11836174     0.25700
C1360       C  0.94608181  0.39155282  0.10017678    -0.12000
C1361       C  0.94390143  0.37895469  0.06807197    -0.26000
C1362       C  0.96432532  0.37990284  0.05317925     0.36500
C1363       C  0.01031555  0.41380568  0.12602779     0.06100
F1364       F  0.96892550  0.41524825  0.14941959    -0.19700
H1365       H  0.93066764  0.39136902  0.11200459     0.15900
F1366       F  0.96288375  0.36776458  0.02251716    -0.23500
H1367       H  0.00145056  0.39163356  0.06046247     0.17700
C1368       C  0.01079123  0.40732882  0.16227011     0.25700
C1369       C  0.03241812  0.41638963  0.18101524    -0.12000
C1370       C  0.05390829  0.43188783  0.16386179    -0.26000
C1371       C  0.05318215  0.43904556  0.12807308     0.36600
C1372       C  0.03168491  0.43000472  0.10948519    -0.27600
F1373       F  0.99050983  0.39119376  0.17888665    -0.19800
H1374       H  0.03247131  0.41031813  0.20820470     0.15900
F1375       F  0.07343240  0.45451283  0.11062735    -0.23500
H1376       H  0.03175545  0.43548099  0.08185832     0.17700
C1377       C  0.07927105  0.34149251  0.24808839    -0.27500
C1378       C  0.08403987  0.34178154  0.28532133     0.06100
C1379       C  0.09936575  0.36366283  0.30163611     0.25700
C1380       C  0.10800654  0.38477054  0.28211593    -0.12000
C1381       C  0.10184429  0.38479790  0.24565327    -0.26000
C1382       C  0.08815293  0.36279989  0.22830144     0.36500
C1383       C  0.07253051  0.31947841  0.30721149     0.06100
F1384       F  0.10585773  0.36471783  0.33668677    -0.19700
H1385       H  0.11910732  0.40135946  0.29605191     0.15900
F1386       F  0.08219875  0.36189856  0.19302447    -0.23500
H1387       H  0.06782068  0.32480940  0.23466154     0.17700
C1388       C  0.06073293  0.31817953  0.33999765     0.25700
C1389       C  0.04855561  0.29662164  0.35894170    -0.12000
C1390       C  0.04760116  0.27591551  0.34533923    -0.26000
C1391       C  0.06035631  0.27752895  0.31355629     0.36600
C1392       C  0.07256071  0.29900441  0.29477305    -0.27600
F1393       F  0.05955164  0.33731684  0.35247733    -0.19800
H1394       H  0.03853865  0.29577764  0.38287937     0.15900
F1395       F  0.06034884  0.25801948  0.29992097    -0.23500
H1396       H  0.08173297  0.29953473  0.27001881     0.17700
C1397       C  0.23027020  0.44548690  0.37560769    -0.27500
C1398       C  0.23073564  0.46657060  0.36481695     0.06100
C1399       C  0.25137501  0.48838698  0.37165014     0.25700
C1400       C  0.27114973  0.48891754  0.38799905    -0.12000
C1401       C  0.27099041  0.46777051  0.39766901    -0.26000
C1402       C  0.25013083  0.44598154  0.39156596     0.36500
C1403       C  0.21045792  0.46550997  0.34404557     0.06100
F1404       F  0.25294342  0.50918275  0.36093322    -0.19700
H1405       H  0.28687822  0.50598391  0.39221041     0.15900
F1406       F  0.24890860  0.42506194  0.40052767    -0.23500
H1407       H  0.21453351  0.42846812  0.37114602     0.17700
C1408       C  0.20109398  0.45011916  0.31424402     0.25700
C1409       C  0.18357585  0.45047403  0.29273614    -0.12000
C1410       C  0.17484177  0.46602619  0.30031643    -0.26000
C1411       C  0.18347045  0.48091568  0.33064684     0.36600
C1412       C  0.20112888  0.48060733  0.35237741    -0.27600
F1413       F  0.20999560  0.43582901  0.30432956    -0.19800
H1414       H  0.17754340  0.43928674  0.26894716     0.15900
F1415       F  0.17607579  0.49684161  0.33774045    -0.23500
H1416       H  0.20792855  0.49257101  0.37520395     0.17700
C1417       C  0.26340525  0.48347149  0.06883416    -0.27500
C1418       C  0.25587339  0.46598652  0.09550783     0.06100
C1419       C  0.26787415  0.45302061  0.10009581     0.25700
C1420       C  0.28703645  0.45736577  0.07744589    -0.12000
C1421       C  0.29405333  0.47444216  0.04987037    -0.26000
C1422       C  0.28220806  0.48768675  0.04620160     0.36500
C1423       C  0.23538787  0.46195552  0.11785429     0.06100
F1424       F  0.26097026  0.43617597  0.12614711    -0.19700
H1425       H  0.29572894  0.44681892  0.08049271     0.15900
F1426       F  0.28860537  0.50461332  0.02032934    -0.23500
H1427       H  0.25437127  0.49366605  0.06517311     0.17700
C1428       C  0.23769748  0.47968707  0.14198567     0.25700
C1429       C  0.21757445  0.47884669  0.15719756    -0.12000
C1430       C  0.19479740  0.46025201  0.14872058    -0.26000
C1431       C  0.19250565  0.44193358  0.12562276     0.36600
C1432       C  0.21274679  0.44286176  0.11023925    -0.27600
F1433       F  0.25942084  0.49841632  0.14942355    -0.19800
H1434       H  0.21976821  0.49308333  0.17503172     0.15900
F1435       F  0.17073591  0.42413782  0.11590424    -0.23500
H1436       H  0.21069368  0.42942176  0.09085743     0.17700
C1437       C  0.13967043  0.52372634  0.05188938    -0.27500
C1438       C  0.13155235  0.53896558  0.06479070     0.06100
C1439       C  0.12435955  0.53718248  0.10090265     0.25700
C1440       C  0.12576076  0.52092825  0.12383438    -0.12000
C1441       C  0.13441513  0.50605572  0.11150565    -0.26000
C1442       C  0.14091302  0.50715470  0.07506607     0.36500
C1443       C  0.13159324  0.55774260  0.04192399     0.06100
F1444       F  0.11715051  0.55209980  0.11457527    -0.19700
H1445       H  0.12065507  0.52043911  0.15181391     0.15900
F1446       F  0.14964237  0.49326537  0.06247968    -0.23500
H1447       H  0.14536355  0.52494779  0.02411891     0.17700
C1448       C  0.15294609  0.57628342  0.02824864     0.25700
C1449       C  0.15356791  0.59656131  0.01370960    -0.12000
C1450       C  0.13289838  0.59860873  0.01232578    -0.26000
C1451       C  0.11124631  0.57926121  0.02381267     0.36600
C1452       C  0.11070636  0.55912176  0.03854198    -0.27600
F1453       F  0.17346650  0.57551958  0.03119772    -0.19800
H1454       H  0.16846880  0.61142270  0.50590646     0.15900
F1455       F  0.09076972  0.58021108  0.02267568    -0.23500
H1456       H  0.09408199  0.54495593  0.04889434     0.17700
C1457       C  0.11158422  0.54672186  0.28951905    -0.27500
C1458       C  0.13291852  0.56848521  0.28745538     0.06100
C1459       C  0.15218338  0.56940420  0.26857787     0.25700
C1460       C  0.15066424  0.54875574  0.25414642    -0.12000
C1461       C  0.12991431  0.52665760  0.25807833    -0.26000
C1462       C  0.11000406  0.52591954  0.27485200     0.36500
C1463       C  0.13636587  0.58920571  0.30937929     0.06100
F1464       F  0.17285793  0.59021289  0.26526771    -0.19700
H1465       H  0.16609091  0.54999395  0.24068152     0.15900
F1466       F  0.08956952  0.50499527  0.27906146    -0.23500
H1467       H  0.09659854  0.54559248  0.30422452     0.17700
C1468       C  0.12149680  0.59929903  0.30627499     0.25700
C1469       C  0.12446494  0.61780966  0.32953345    -0.12000
C1470       C  0.14203794  0.62615679  0.35646519    -0.26000
C1471       C  0.15737077  0.61651604  0.35844399     0.36600
C1472       C  0.15453014  0.59835724  0.33518187    -0.27600
F1473       F  0.10405116  0.59111823  0.28107462    -0.19800
H1474       H  0.11236735  0.62482703  0.32760610     0.15900
F1475       F  0.17488462  0.62426913  0.38355519    -0.23500
H1476       H  0.16614628  0.59082848  0.33815510     0.17700
O1477       O  0.14573918  0.50173577  0.66513675    -0.84700
O1478       O  0.15490644  0.50815547  0.73872248    -0.81700
C1479       C  0.13602418  0.50814056  0.74655938     0.98800
O1480       O  0.11664735  0.48952944  0.74123469    -0.81700
O1481       O  0.08310182  0.44534769  0.71735846    -0.84400
C1482       C  0.07758145  0.44136408  0.68416268     1.03300
O1483       O  0.09187135  0.44133432  0.66125614    -0.77200
O1484       O  0.13361695  0.47026871  0.62948937    -0.77300
C1485       C  0.13724521  0.49134393  0.63548054     1.03300
O1486       O  0.17362277  0.47948485  0.66034045    -0.84700
O1487       O  0.17275592  0.47647368  0.73472029    -0.81700
C1488       C  0.16432375  0.47044058  0.76616770     0.98800
O1489       O  0.14426541  0.46861017  0.77463066    -0.81800
O1490       O  0.11033044  0.42610356  0.75080607    -0.84400
C1491       C  0.10690158  0.40950706  0.72974456     1.03300
O1492       O  0.10910346  0.41275026  0.69582302    -0.77200
O1493       O  0.15271757  0.44134987  0.66514551    -0.77300
C1494       C  0.17212170  0.45943548  0.65778192     1.03300
Cr1495     Cr  0.15955180  0.48939520  0.69989889     1.93700
Cr1496     Cr  0.11485871  0.45788956  0.74278983     1.93200
Cr1497     Cr  0.12266681  0.44291884  0.66582246     1.39100
O1498       O  0.13184656  0.46291957  0.70292779    -1.22400
O1499       O  0.97426389  0.15697371  0.91301317    -0.84700
O1500       O  0.97485051  0.15202766  0.83964640    -0.81700
C1501       C  0.95700659  0.15444101  0.83347810     0.98800
O1502       O  0.95880710  0.17461170  0.83752909    -0.81700
O1503       O  0.97471626  0.22067157  0.86226686    -0.84400
C1504       C  0.96985849  0.22086760  0.89553552     1.03300
O1505       O  0.97969770  0.21488118  0.91926928    -0.77200
O1506       O  0.99480602  0.18703573  0.94968084    -0.77300
C1507       C  0.97681788  0.16674135  0.94335375     1.03300
O1508       O  0.02476475  0.17793548  0.91545428    -0.84700
O1509       O  0.02497357  0.18008377  0.84163189    -0.81700
C1510       C  0.02283942  0.18636141  0.81030183     0.98800
O1511       O  0.00571070  0.19018657  0.80291766    -0.81800
O1512       O  0.02039635  0.23367083  0.83048829    -0.84400
C1513       C  0.03002465  0.25004977  0.85330082     1.03300
O1514       O  0.02504970  0.24594934  0.88662525    -0.77200
O1515       O  0.04114434  0.21637800  0.91327160    -0.77300
C1516       C  0.04280603  0.19814740  0.91969410     1.03300
Cr1517     Cr  0.99971557  0.16872226  0.87739258     1.93700
Cr1518     Cr  0.99037500  0.20405392  0.83625713     1.93200
Cr1519     Cr  0.00969833  0.21476514  0.91434349     1.39100
O1520       O  0.99993160  0.19614218  0.87591026    -1.22400
O1521       O  0.82330818  0.31237433  0.51181269    -0.84700
O1522       O  0.82129593  0.31234228  0.58528608    -0.81700
C1523       C  0.82181104  0.29314752  0.58723391     0.98800
O1524       O  0.84118919  0.29352811  0.58161167    -0.81700
O1525       O  0.88664739  0.30794260  0.55541791    -0.84400
C1526       C  0.88660387  0.30412151  0.52172384     1.03300
O1527       O  0.88065443  0.31492078  0.49966799    -0.77200
O1528       O  0.85428310  0.32783355  0.96194252    -0.77300
C1529       C  0.83351653  0.31096216  0.96973682     1.03300
O1530       O  0.84663026  0.36278104  0.51082744    -0.84700
O1531       O  0.85185297  0.36230673  0.58405493    -0.81700
C1532       C  0.85885201  0.35901892  0.61411697     0.98800
O1533       O  0.85986376  0.34006020  0.61996229    -0.81800
O1534       O  0.90204853  0.35325595  0.59015019    -0.84400
C1535       C  0.91783410  0.36411050  0.56686065     1.03300
O1536       O  0.91331887  0.35991832  0.53339202    -0.77200
O1537       O  0.88646220  0.37457402  0.99678992    -0.77300
C1538       C  0.86875578  0.37746374  0.99315598     1.03300
Cr1539     Cr  0.83758176  0.33734969  0.54788104     1.93700
Cr1540     Cr  0.87167954  0.32419902  0.58402505     1.93200
Cr1541     Cr  0.88321195  0.34241501  0.99531913     1.39100
O1542       O  0.86395064  0.33556736  0.54619274    -1.22400
O1543       O  0.85187707  0.49113137  0.75510453    -0.84700
O1544       O  0.85313155  0.49450096  0.82787008    -0.81700
C1545       C  0.85933988  0.50361055  0.85868172     0.98800
O1546       O  0.86033612  0.52340492  0.86592256    -0.81700
O1547       O  0.90332974  0.55337094  0.84003016    -0.84400
C1548       C  0.92008544  0.55921218  0.81814075     1.03300
O1549       O  0.91669675  0.55993719  0.78449331    -0.77200
O1550       O  0.88993511  0.51470405  0.75810642    -0.77300
C1551       C  0.87265520  0.49428828  0.75286806     1.03300
O1552       O  0.82743945  0.51730480  0.75322394    -0.84700
O1553       O  0.82193472  0.51352125  0.82690978    -0.81700
C1554       C  0.82258274  0.53309903  0.83209297     0.98800
O1555       O  0.84207305  0.55207335  0.82884596    -0.81800
O1556       O  0.88795490  0.58364892  0.80535003    -0.84400
C1557       C  0.88873985  0.58816331  0.77178668     1.03300
O1558       O  0.88442756  0.57237835  0.74864056    -0.77200
O1559       O  0.85913774  0.52927391  0.71866345    -0.77300
C1560       C  0.83738807  0.52362627  0.72287326     1.03300
Cr1561     Cr  0.84047638  0.50625664  0.79100841     1.93700
Cr1562     Cr  0.87279169  0.55193304  0.83201104     1.93200
Cr1563     Cr  0.88614836  0.54332146  0.75528944     1.39100
O1564       O  0.86664803  0.53423684  0.79268265    -1.22400
O1565       O  0.17987487  0.69179740  0.92528569    -0.84700
O1566       O  0.17323031  0.69034194  0.99824709    -0.81700
C1567       C  0.16674136  0.68746738  0.52004779     0.98800
O1568       O  0.14582842  0.67074198  0.52725529    -0.81700
O1569       O  0.11479328  0.68221861  0.00431706    -0.84400
C1570       C  0.10931108  0.69311692  0.98169128     1.03300
O1571       O  0.11017256  0.68952072  0.94793100    -0.77200
O1572       O  0.15623147  0.70657717  0.92319372    -0.77300
C1573       C  0.17672645  0.70924039  0.91944208     1.03300
O1574       O  0.15398120  0.64171191  0.92434099    -0.84700
O1575       O  0.15428136  0.63981615  0.99777956    -0.81700
C1576       C  0.13291863  0.62196714  0.49742206     0.98800
O1577       O  0.11475299  0.62410504  0.49330203    -0.81800
O1578       O  0.08527401  0.63761723  0.96887894    -0.84400
C1579       C  0.08146394  0.63364520  0.93529789     1.03300
O1580       O  0.09800424  0.64426119  0.91301277    -0.77200
O1581       O  0.14212333  0.66016379  0.88655243    -0.77300
C1582       C  0.14822141  0.64440878  0.89301724     1.03300
Cr1583     Cr  0.16324848  0.66584168  0.96144935     1.93700
Cr1584     Cr  0.11693460  0.65581470  0.49392171     1.93200
Cr1585     Cr  0.12732269  0.67454747  0.92055556     1.39100
O1586       O  0.13521850  0.66436719  0.95953603    -1.22400
O1587       O  0.02301198  0.84431446  0.66584778    -0.84700
O1588       O  0.02398213  0.84131074  0.59143599    -0.81700
C1589       C  0.02186787  0.83196846  0.56071468     0.98800
O1590       O  0.00438085  0.81127015  0.55381466    -0.81700
O1591       O  0.01714283  0.78034881  0.57949453    -0.84400
C1592       C  0.03049483  0.77742785  0.60091562     1.03300
O1593       O  0.02938508  0.78025149  0.63475685    -0.77200
O1594       O  0.04218487  0.82497640  0.66170418    -0.77300
C1595       C  0.04213063  0.84397379  0.66870539     1.03300
O1596       O  0.97391981  0.81443707  0.66378660    -0.84700
O1597       O  0.97423960  0.82018287  0.58985463    -0.81700
C1598       C  0.95600470  0.80027827  0.58605239     0.98800
O1599       O  0.95757662  0.78198147  0.59157891    -0.81800
O1600       O  0.97221030  0.75145088  0.61555469    -0.84400
C1601       C  0.97087884  0.74713541  0.64918920     1.03300
O1602       O  0.98430301  0.76272270  0.67122414    -0.77200
O1603       O  0.99518652  0.80494257  0.69986819    -0.77300
C1604       C  0.97693068  0.80733746  0.69403351     1.03300
Cr1605     Cr  0.99888550  0.82799195  0.62759934     1.93700
Cr1606     Cr  0.98852760  0.78265977  0.58803339     1.93200
Cr1607     Cr  0.01211050  0.79395208  0.66401167     1.39100
O1608       O  0.99989241  0.80107499  0.62651031    -1.22400
O1609       O  0.30671886  0.82511057  0.75144581    -0.84700
O1610       O  0.30652549  0.81767423  0.67823467    -0.81700
C1611       C  0.28847675  0.81953563  0.67129766     0.98800
O1612       O  0.28948651  0.83928537  0.67560974    -0.81700
O1613       O  0.30374640  0.88511519  0.69840875    -0.84400
C1614       C  0.30123248  0.88773955  0.73193829     1.03300
O1615       O  0.31361404  0.88467405  0.75506573    -0.77200
O1616       O  0.32772074  0.85635717  0.78614657    -0.77300
C1617       C  0.30956391  0.83586711  0.78103263     1.03300
O1618       O  0.35691405  0.84591636  0.75249744    -0.84700
O1619       O  0.35652721  0.84682245  0.67860213    -0.81700
C1620       C  0.35426069  0.85324913  0.64741101     0.98800
O1621       O  0.33639117  0.85587260  0.63972412    -0.81800
O1622       O  0.34901320  0.89953189  0.66341393    -0.84400
C1623       C  0.36069790  0.91640362  0.68467656     1.03300
O1624       O  0.35824846  0.91337613  0.71863892    -0.77200
O1625       O  0.37414728  0.88416200  0.74718711    -0.77300
C1626       C  0.37553418  0.86584294  0.75398807     1.03300
Cr1627     Cr  0.33162731  0.83587982  0.71502453     1.93700
Cr1628     Cr  0.32029643  0.86933758  0.67242734     1.93200
Cr1629     Cr  0.34283145  0.88319078  0.74891918     1.39100
O1630       O  0.33155439  0.86318030  0.71202021    -1.22400
O1631       O  0.15659943  0.97531440  0.83179526    -0.84700
O1632       O  0.15037771  0.97282944  0.90537050    -0.81700
C1633       C  0.15313053  0.95522955  0.91212611     0.98800
O1634       O  0.17334544  0.95718410  0.90764160    -0.81700
O1635       O  0.21961738  0.97427520  0.88166886    -0.84400
C1636       C  0.22029027  0.97050916  0.84801193     1.03300
O1637       O  0.21425739  0.98088503  0.82512671    -0.77200
O1638       O  0.18697660  0.99785402  0.79685226    -0.77300
C1639       C  0.16680697  0.97952533  0.80159440     1.03300
O1640       O  0.17720648  0.02587021  0.83485138    -0.84700
O1641       O  0.17779567  0.02289216  0.90794407    -0.81700
C1642       C  0.18357312  0.01977883  0.93902587     0.98800
O1643       O  0.18874231  0.00334553  0.94478884    -0.81800
O1644       O  0.23250000  0.01917897  0.91671014    -0.84400
C1645       C  0.24894969  0.02954558  0.89414739     1.03300
O1646       O  0.24498355  0.02518581  0.86072908    -0.77200
O1647       O  0.21566645  0.04233524  0.83711366    -0.77300
C1648       C  0.19737991  0.04420484  0.83249542     1.03300
Cr1649     Cr  0.16751147  0.99917782  0.86992677     1.93700
Cr1650     Cr  0.20284792  0.98906916  0.90968124     1.93200
Cr1651     Cr  0.21406811  0.01088335  0.83290795     1.39100
O1652       O  0.19504594  0.99965369  0.87096176    -1.22400
O1653       O  0.50223720  0.14445096  0.57290043    -0.84700
O1654       O  0.50485053  0.15002058  0.49878594    -0.81700
C1655       C  0.50536648  0.12954891  0.99377138     0.98800
O1656       O  0.48646171  0.11054027  0.99978804    -0.81700
O1657       O  0.44170146  0.07979737  0.52617619    -0.84400
C1658       C  0.43893823  0.07500125  0.55965184     1.03300
O1659       O  0.44103479  0.09029184  0.58245998    -0.77200
O1660       O  0.47215100  0.13258032  0.61121712    -0.77300
C1661       C  0.49356198  0.13765183  0.60402664     1.03300
O1662       O  0.48096907  0.17265971  0.57875346    -0.84700
O1663       O  0.47439381  0.16809012  0.00124404    -0.67300
C1664       C  0.46800159  0.15860937  0.97054819     0.98800
O1665       O  0.46695491  0.13871866  0.96359432    -0.81800
O1666       O  0.42349081  0.10812467  0.49356183    -0.84400
C1667       C  0.40799012  0.10590729  0.51606066     1.03300
O1668       O  0.41236253  0.10828468  0.54974614    -0.77200
O1669       O  0.44281320  0.15224165  0.57849352    -0.77300
C1670       C  0.46138289  0.17140005  0.58537918     1.03300
Cr1671     Cr  0.48843603  0.15690024  0.53864236     1.93700
Cr1672     Cr  0.45568720  0.11044794  0.99806552     1.93200
Cr1673     Cr  0.44344280  0.12152900  0.57742943     1.39100
O1674       O  0.46179275  0.12933685  0.53867228    -1.22400
O1675       O  0.84589221  0.02446786  0.59721691    -0.84700
O1676       O  0.83863716  0.02226428  0.67100085    -0.81700
C1677       C  0.82787377  0.01889864  0.70073403     0.98800
O1678       O  0.80746337  0.00057294  0.70584839    -0.81700
O1679       O  0.77611933  0.01212066  0.67781846    -0.84400
C1680       C  0.77511536  0.02686453  0.65685759     1.03300
O1681       O  0.78001752  0.02752421  0.62364474    -0.77200
O1682       O  0.82506090  0.04200156  0.60049042    -0.77300
C1683       C  0.84478005  0.04325882  0.59500288     1.03300
O1684       O  0.81744931  0.97486708  0.59416487    -0.84700
O1685       O  0.81993104  0.97298085  0.66902506    -0.81700
C1686       C  0.80062745  0.95390968  0.67155428     0.98800
O1687       O  0.78170769  0.95423761  0.66543140    -0.81800
O1688       O  0.75071982  0.96797240  0.63811465    -0.84400
C1689       C  0.74718468  0.96923693  0.60462510     1.03300
O1690       O  0.76343023  0.98407389  0.58467287    -0.77200
O1691       O  0.80674492  0.99583678  0.55919038    -0.77300
C1692       C  0.81081684  0.97852587  0.56387628     1.03300
Cr1693     Cr  0.82816689  0.99851447  0.63286958     1.93700
Cr1694     Cr  0.78054316  0.98457494  0.66883980     1.93200
Cr1695     Cr  0.79450656  0.01143612  0.59493116     1.39100
O1696       O  0.80046273  0.99796143  0.63208701    -1.22400
O1697       O  0.48847758  0.84763334  0.99423773    -0.84700
O1698       O  0.49329792  0.85115883  0.92057454    -0.81700
C1699       C  0.50265606  0.85701118  0.88975652     0.98800
O1700       O  0.52400932  0.86157323  0.88449066    -0.81700
O1701       O  0.55179648  0.90449172  0.91373939    -0.84400
C1702       C  0.55639647  0.92054825  0.93655496     1.03300
O1703       O  0.55550975  0.91618723  0.97015408    -0.77200
O1704       O  0.51016447  0.88858960  0.49311566    -0.77300
C1705       C  0.49085546  0.87003731  0.49946229     1.03300
O1706       O  0.51942987  0.82993059  0.49647703    -0.84700
O1707       O  0.51498933  0.82250758  0.92139194    -0.81700
C1708       C  0.53517387  0.82457844  0.91669016     0.98800
O1709       O  0.55332050  0.84443630  0.92213598    -0.81800
O1710       O  0.58235281  0.88962469  0.94888841    -0.84400
C1711       C  0.58618045  0.88993396  0.98258762     1.03300
O1712       O  0.56987118  0.88512100  0.00498470    -0.77200
O1713       O  0.52891726  0.86079851  0.53212958    -0.77300
C1714       C  0.52503457  0.83956245  0.52718902     1.03300
Cr1715     Cr  0.50566319  0.83905755  0.95790728     1.93700
Cr1716     Cr  0.55152180  0.87432970  0.92034626     1.93200
Cr1717     Cr  0.54080605  0.88833474  0.49601990     1.39100
O1718       O  0.53264999  0.86632059  0.95852381    -1.22400
O1719       O  0.69083906  0.17839028  0.82365864    -0.84700
O1720       O  0.68930323  0.17304571  0.75117970    -0.81700
C1721       C  0.68660634  0.16432592  0.72010860     0.98800
O1722       O  0.67003758  0.14308990  0.71401620    -0.81700
O1723       O  0.68573786  0.11603783  0.74594688    -0.84400
C1724       C  0.69526239  0.10980253  0.76982805     1.03300
O1725       O  0.68945408  0.10904563  0.80271903    -0.77200
O1726       O  0.70626080  0.15516518  0.82597912    -0.77300
C1727       C  0.70848105  0.17551827  0.82954187     1.03300
O1728       O  0.64032694  0.15040601  0.82438347    -0.84700
O1729       O  0.63904337  0.15165716  0.75087111    -0.81700
C1730       C  0.62142471  0.13134748  0.74525263     0.98800
O1731       O  0.62350803  0.11315931  0.74985440    -0.81800
O1732       O  0.63993679  0.08410143  0.77891815    -0.84400
C1733       C  0.63482817  0.08038377  0.81243289     1.03300
O1734       O  0.64425031  0.09721073  0.83455616    -0.77200
O1735       O  0.66050798  0.14085806  0.86207904    -0.77300
C1736       C  0.64356452  0.14501799  0.85564312     1.03300
Cr1737     Cr  0.66481009  0.16129496  0.78756589     1.93700
Cr1738     Cr  0.65529264  0.11535317  0.75011719     1.93200
Cr1739     Cr  0.67454686  0.12623966  0.82826727     1.39100
O1740       O  0.66474227  0.13401192  0.78866920    -1.22400
O1741       O  0.51261464  0.35850293  0.75815668    -0.84700
O1742       O  0.50585117  0.35891793  0.83172539    -0.81700
C1743       C  0.49548470  0.35623830  0.86168480     0.98800
O1744       O  0.47382180  0.33999220  0.86605137    -0.81700
O1745       O  0.44421918  0.35210306  0.83224325    -0.84400
C1746       C  0.44090081  0.36340523  0.80754881     1.03300
O1747       O  0.44491630  0.36095845  0.77473029    -0.77200
O1748       O  0.49116029  0.37563711  0.75509060    -0.77300
C1749       C  0.51106791  0.37686741  0.75189000     1.03300
O1750       O  0.48282345  0.30783916  0.76025410    -0.84700
O1751       O  0.48489222  0.30935100  0.83459827    -0.81700
C1752       C  0.46490182  0.29120504  0.83865255     0.98800
O1753       O  0.44672223  0.29238860  0.83021263    -0.81800
O1754       O  0.41726909  0.30645421  0.79807442    -0.84400
C1755       C  0.41444034  0.30353302  0.76410762     1.03300
O1756       O  0.43136257  0.31535331  0.74288303    -0.77200
O1757       O  0.47549610  0.32851366  0.72016585    -0.77300
C1758       C  0.47687806  0.31009515  0.72874412     1.03300
Cr1759     Cr  0.49443800  0.33369618  0.79568438     1.93700
Cr1760     Cr  0.44710752  0.32342293  0.82881661     1.93200
Cr1761     Cr  0.46136830  0.34453908  0.75142959     1.39100
O1762       O  0.46730825  0.33407975  0.79214076    -1.22400
O1763       O  0.17994899  0.15480433  0.58781306    -0.84700
O1764       O  0.18533030  0.16130122  0.66102176    -0.81700
C1765       C  0.19213719  0.17108339  0.69142699     0.98800
O1766       O  0.19716059  0.19265167  0.69624946    -0.81700
O1767       O  0.23956652  0.21916573  0.66495608    -0.84400
C1768       C  0.25489861  0.22256407  0.64148780     1.03300
O1769       O  0.24989476  0.22094341  0.60809345    -0.77200
O1770       O  0.21835736  0.17520296  0.58575332    -0.77300
C1771       C  0.19952605  0.15572569  0.58197211     1.03300
O1772       O  0.15987498  0.18482036  0.58644461    -0.84700
O1773       O  0.15764179  0.18395145  0.66050644    -0.81700
C1774       C  0.16032811  0.20440614  0.66502987     0.98800
O1775       O  0.18029037  0.22231545  0.65912541    -0.81800
O1776       O  0.22524145  0.25013197  0.62936693    -0.84400
C1777       C  0.22571609  0.25333249  0.59539531     1.03300
O1778       O  0.21973389  0.23625764  0.57403008    -0.77200
O1779       O  0.18929585  0.19288364  0.54866516    -0.77300
C1780       C  0.16836436  0.18934239  0.55495429     1.03300
Cr1781     Cr  0.17292528  0.17339165  0.62385441     1.93700
Cr1782     Cr  0.20974504  0.21965346  0.65934703     1.93200
Cr1783     Cr  0.21801510  0.20575451  0.58234122     1.39100
O1784       O  0.20050029  0.19999505  0.62178746    -1.22400
O1785       O  0.35798957  0.51304400  0.99479713    -0.84700
O1786       O  0.36002938  0.51019939  0.92137982    -0.81700
C1787       C  0.35869130  0.50172653  0.89029902     0.98800
O1788       O  0.34278108  0.48034639  0.88306249    -0.81700
O1789       O  0.35791857  0.45257417  0.91288591    -0.84400
C1790       C  0.36900429  0.44804746  0.93641752     1.03300
O1791       O  0.36442829  0.44820260  0.96975173    -0.77200
O1792       O  0.37629274  0.48836597  0.49500013    -0.77300
C1793       C  0.37843558  0.50858732  0.50024514     1.03300
O1794       O  0.31039346  0.48415653  0.49417970    -0.84700
O1795       O  0.30998440  0.48695087  0.91701212    -0.81700
C1796       C  0.29279308  0.46657038  0.91073428     0.98800
O1797       O  0.29530475  0.44876160  0.91644417    -0.81800
O1798       O  0.31199456  0.42003137  0.94439176    -0.84400
C1799       C  0.30771236  0.41546099  0.97789753     1.03300
O1800       O  0.31795418  0.43148302  0.00115084    -0.77200
O1801       O  0.32929733  0.47184363  0.53024027    -0.77300
C1802       C  0.31268499  0.47671469  0.52455884     1.03300
Cr1803     Cr  0.33423829  0.49606089  0.95601560     1.93700
Cr1804     Cr  0.32743969  0.45167618  0.91721465     1.93200
Cr1805     Cr  0.34442992  0.45908682  0.49474688     1.39100
O1806       O  0.33607874  0.46969106  0.95633035    -1.22400
O1807       O  0.49590582  0.64489327  0.66401464    -0.84700
O1808       O  0.49136305  0.64655296  0.73786309    -0.81700
C1809       C  0.49200969  0.62772460  0.74357830     0.98800
O1810       O  0.51102811  0.62760096  0.73740300    -0.81700
O1811       O  0.55592271  0.64025105  0.71240669    -0.84400
C1812       C  0.55840036  0.63798116  0.67886478     1.03300
O1813       O  0.55548240  0.65062759  0.65602473    -0.77200
O1814       O  0.52618615  0.66424217  0.62685391    -0.77300
C1815       C  0.50555286  0.64663141  0.63369766     1.03300
O1816       O  0.51774314  0.69494593  0.66090053    -0.84700
O1817       O  0.52156448  0.69603618  0.73494805    -0.81700
C1818       C  0.52794559  0.69325685  0.76589742     0.98800
O1819       O  0.53031927  0.67515149  0.77304250    -0.81800
O1820       O  0.57326763  0.68551476  0.74655618    -0.84400
C1821       C  0.58958235  0.69685418  0.72421477     1.03300
O1822       O  0.58537236  0.69565593  0.69050359    -0.77200
O1823       O  0.55595495  0.71170141  0.66353647    -0.77300
C1824       C  0.53767199  0.71338008  0.65827923     1.03300
Cr1825     Cr  0.50864990  0.67052395  0.69940589     1.93700
Cr1826     Cr  0.54193220  0.65785815  0.73927298     1.93200
Cr1827     Cr  0.55436018  0.68003675  0.66211234     1.39100
O1828       O  0.53547643  0.66951192  0.70033331    -1.22400
O1829       O  0.64267699  0.49247549  0.58031971    -0.84700
O1830       O  0.64175646  0.48722128  0.50700388    -0.81700
C1831       C  0.62149329  0.48967726  0.00093354     0.98800
O1832       O  0.62359899  0.50986259  0.00603233    -0.81700
O1833       O  0.64476123  0.55729093  0.53000663    -0.84400
C1834       C  0.64016506  0.55738864  0.56335437     1.03300
O1835       O  0.64975994  0.55091404  0.58671795    -0.77200
O1836       O  0.66401372  0.52235172  0.61686075    -0.77300
C1837       C  0.64586457  0.50205480  0.61091909     1.03300
O1838       O  0.69309219  0.51228557  0.58036356    -0.84700
O1839       O  0.68933951  0.51367971  0.00390908    -0.81700
C1840       C  0.68627606  0.52035039  0.97331748     0.98800
O1841       O  0.66996211  0.52579128  0.96827598    -0.81800
O1842       O  0.68971605  0.56874502  0.49708604    -0.84400
C1843       C  0.70018094  0.58521935  0.51952279     1.03300
O1844       O  0.69539956  0.58136163  0.55301852    -0.77200
O1845       O  0.71026098  0.55089020  0.57969280    -0.77300
C1846       C  0.71141198  0.53227002  0.58473855     1.03300
Cr1847     Cr  0.66747988  0.50355096  0.54364749     1.93700
Cr1848     Cr  0.65545700  0.53923096  0.00394881     1.93200
Cr1849     Cr  0.67926408  0.55006421  0.58110763     1.39100
O1850       O  0.66864448  0.53141260  0.54260335    -1.22400
O1851       O  0.82067362  0.84014817  0.84285839    -0.84700
O1852       O  0.82029190  0.84340861  0.91705280    -0.81700
C1853       C  0.80045624  0.84256324  0.91942923     0.98800
O1854       O  0.78191972  0.82327116  0.91283199    -0.81700
O1855       O  0.75175666  0.77839017  0.88514844    -0.84400
C1856       C  0.74876868  0.77689827  0.85113599     1.03300
O1857       O  0.76574715  0.78117084  0.83029206    -0.77200
O1858       O  0.81031447  0.80944719  0.80644720    -0.77300
C1859       C  0.81524671  0.83093911  0.81181162     1.03300
O1860       O  0.84744511  0.81667982  0.84750692    -0.84700
O1861       O  0.83932442  0.81193486  0.92030998    -0.81700
C1862       C  0.82813751  0.80477996  0.94960689     0.98800
O1863       O  0.80796019  0.80355137  0.95375837    -0.81800
O1864       O  0.77855136  0.76102268  0.92381094    -0.84400
C1865       C  0.77504266  0.74518659  0.90112434     1.03300
O1866       O  0.77862858  0.74986874  0.86769615    -0.77200
O1867       O  0.82461492  0.77851170  0.84643388    -0.77300
C1868       C  0.84489122  0.79628094  0.84281309     1.03300
Cr1869     Cr  0.82972005  0.82599236  0.88189600     1.93700
Cr1870     Cr  0.78163208  0.79234764  0.91593170     1.93200
Cr1871     Cr  0.79544878  0.78117686  0.84080553     1.39100
O1872       O  0.80183649  0.79955525  0.87938254    -1.22400
C1873       C  0.76844438  0.68533435  0.92763140    -0.27500
C1874       C  0.74895269  0.67680692  0.95153102     0.06100
C1875       C  0.73744650  0.69028451  0.95608798     0.25700
C1876       C  0.74572870  0.71199988  0.93841629    -0.12000
C1877       C  0.76533789  0.72071762  0.91511687    -0.26000
C1878       C  0.77655311  0.70709489  0.90941680     0.36500
C1879       C  0.73987781  0.65363092  0.97084963     0.06100
F1880       F  0.71784992  0.68227773  0.97722344    -0.19700
H1881       H  0.73681023  0.72222794  0.94313965     0.15900
F1882       F  0.79593892  0.71533721  0.88776595    -0.23500
H1883       H  0.77768631  0.67536875  0.92362178     0.17700
C1884       C  0.73473074  0.63279602  0.95190934     0.25700
C1885       C  0.72249912  0.61062414  0.96888165    -0.12000
C1886       C  0.71705735  0.60923443  0.50461268    -0.26000
C1887       C  0.72358114  0.63038968  0.52366363     0.36600
C1888       C  0.73411340  0.65177581  0.00786325    -0.27600
F1889       F  0.73992102  0.63361979  0.91626641    -0.19800
H1890       H  0.71782471  0.59485824  0.95298217     0.15900
F1891       F  0.71705856  0.62976287  0.55862119    -0.23500
H1892       H  0.73828859  0.66759020  0.02329896     0.17700
C1893       C  0.65124128  0.74678136  0.75040820    -0.27500
C1894       C  0.65753115  0.73559541  0.77760417     0.06100
C1895       C  0.64189262  0.71144572  0.78480169     0.25700
C1896       C  0.62044306  0.69913346  0.76611703    -0.12000
C1897       C  0.61394798  0.71029465  0.73940858    -0.26000
C1898       C  0.62969610  0.73425026  0.73133385     0.36500
C1899       C  0.68063722  0.74861610  0.79747503     0.06100
F1900       F  0.64749193  0.69951263  0.80950069    -0.19700
H1901       H  0.60864354  0.68063428  0.77277133     0.15900
F1902       F  0.62379139  0.74579358  0.70640797    -0.23500
H1903       H  0.66284372  0.76539768  0.74437018     0.17700
C1904       C  0.70203487  0.76179980  0.77855391     0.25700
C1905       C  0.72380378  0.77184579  0.79668000    -0.12000
C1906       C  0.72505594  0.76905538  0.83421474    -0.26000
C1907       C  0.70360995  0.75673614  0.85352193     0.36600
C1908       C  0.68169387  0.74667950  0.83529274    -0.27600
F1909       F  0.70207908  0.76378255  0.74210692    -0.19800
H1910       H  0.73985257  0.78117764  0.78084383     0.15900
F1911       F  0.70375622  0.75337449  0.88962934    -0.23500
H1912       H  0.66550790  0.73689924  0.85068568     0.17700
C1913       C  0.57153252  0.60151965  0.61250171    -0.27500
C1914       C  0.58749557  0.59709802  0.63181269     0.06100
C1915       C  0.59185624  0.60382217  0.66840976     0.25700
C1916       C  0.58113474  0.61581640  0.68473976    -0.12000
C1917       C  0.56596963  0.62123531  0.66476482    -0.26000
C1918       C  0.56073638  0.61325844  0.62870083     0.36500
C1919       C  0.59995812  0.58618174  0.61290234     0.06100
F1920       F  0.60746400  0.59998821  0.68770898    -0.19700
H1921       H  0.58566893  0.62195544  0.71229856     0.15900
F1922       F  0.54560836  0.61737736  0.60859475    -0.23500
H1923       H  0.56768603  0.59615051  0.58451346     0.17700
C1924       C  0.59760236  0.56451131  0.62462950     0.25700
C1925       C  0.60966402  0.55457205  0.60675067    -0.12000
C1926       C  0.62424172  0.56597993  0.57679830    -0.26000
C1927       C  0.62617435  0.58739078  0.56447568     0.36600
C1928       C  0.61398878  0.59731337  0.58233933    -0.27600
F1929       F  0.58362639  0.55296127  0.65333041    -0.19800
H1930       H  0.60809424  0.53814041  0.61688888     0.15900
F1931       F  0.64104357  0.59948811  0.53688356    -0.23500
H1932       H  0.61603600  0.61408763  0.57298232     0.17700
C1933       C  0.40120931  0.52615687  0.81003039    -0.27500
C1934       C  0.41250895  0.55071532  0.81734410     0.06100
C1935       C  0.40528333  0.55863408  0.84760115     0.25700
C1936       C  0.38723714  0.54251068  0.86985206    -0.12000
C1937       C  0.37590701  0.51791998  0.86304851    -0.26000
C1938       C  0.38296817  0.50981269  0.83266774     0.36500
C1939       C  0.43176988  0.56847209  0.79398691     0.06100
F1940       F  0.41625931  0.58204976  0.85647737    -0.19700
H1941       H  0.38241981  0.54942848  0.89307153     0.15900
F1942       F  0.37292075  0.48622355  0.82557248    -0.23500
H1943       H  0.40650994  0.51967410  0.78683876     0.17700
C1944       C  0.45249228  0.56725635  0.78669009     0.25700
C1945       C  0.47185056  0.58620367  0.76927390    -0.12000
C1946       C  0.47087749  0.60668175  0.75900951    -0.26000
C1947       C  0.44963327  0.60725359  0.76500757     0.36600
C1948       C  0.43038953  0.58832871  0.78200212    -0.27600
F1949       F  0.45454651  0.54842883  0.79818164    -0.19800
H1950       H  0.48785299  0.58516986  0.76491149     0.15900
F1951       F  0.44751300  0.62639337  0.75548062    -0.23500
H1952       H  0.41452096  0.58953349  0.78692254     0.17700
C1953       C  0.44002046  0.54624312  0.54128204    -0.27500
C1954       C  0.44215400  0.56900828  0.54106966     0.06100
C1955       C  0.42427704  0.57190716  0.52436538     0.25700
C1956       C  0.40410151  0.55226009  0.51029475    -0.12000
C1957       C  0.40123946  0.52923624  0.51230540    -0.26000
C1958       C  0.41984949  0.52653366  0.52693244     0.36500
C1959       C  0.46097456  0.58873419  0.56271474     0.06100
F1960       F  0.42547568  0.59346303  0.52384660    -0.19700
H1961       H  0.39032606  0.55503973  0.49867217     0.15900
F1962       F  0.41812919  0.50478054  0.52902663    -0.23500
H1963       H  0.45363596  0.54359405  0.55382523     0.17700
C1964       C  0.46312546  0.58512508  0.59953552     0.25700
C1965       C  0.47840741  0.60402988  0.62146991    -0.12000
C1966       C  0.49209900  0.62710979  0.60752497    -0.26000
C1967       C  0.49086103  0.63073325  0.57035259     0.36600
C1968       C  0.47522537  0.61166169  0.54818554    -0.27600
F1969       F  0.44928522  0.56356294  0.61494797    -0.19800
H1970       H  0.47906893  0.60068529  0.64995941     0.15900
F1971       F  0.50360487  0.65277494  0.55592552    -0.23500
H1972       H  0.47381938  0.61487881  0.51988493     0.17700
C1973       C  0.25533795  0.32053505  0.57965189    -0.27500
C1974       C  0.25355554  0.32145160  0.54178098     0.06100
C1975       C  0.24133266  0.29998778  0.52273775     0.25700
C1976       C  0.23175708  0.27831364  0.54085430    -0.12000
C1977       C  0.23405625  0.27715880  0.57857390    -0.26000
C1978       C  0.24564915  0.29864389  0.59795842     0.36500
C1979       C  0.26476185  0.34463121  0.52211559     0.06100
F1980       F  0.23844813  0.29986570  0.48645298    -0.19700
H1981       H  0.22275383  0.26226576  0.52485688     0.15900
F1982       F  0.24826404  0.29859277  0.63425947    -0.23500
H1983       H  0.26481027  0.33680334  0.59502485     0.17700
C1984       C  0.26201483  0.36371494  0.53443693     0.25700
C1985       C  0.27891895  0.38883547  0.02440746    -0.12000
C1986       C  0.29105494  0.39112558  0.99175298    -0.26000
C1987       C  0.29024840  0.37004395  0.47343268     0.36600
C1988       C  0.27865976  0.34795552  0.49100783    -0.27600
F1989       F  0.24794862  0.36106833  0.56323541    -0.19800
H1990       H  0.27978685  0.40435188  0.03706977     0.15900
F1991       F  0.30093688  0.37186957  0.94492105    -0.23500
H1992       H  0.28130544  0.33368189  0.48106174     0.17700
C1993       C  0.51679850  0.40052181  0.93956106    -0.27500
C1994       C  0.54125454  0.40804798  0.93920667     0.06100
C1995       C  0.54965521  0.39665555  0.91592309     0.25700
C1996       C  0.53420814  0.37896798  0.89244474    -0.12000
C1997       C  0.50994032  0.37196810  0.89156294    -0.26000
C1998       C  0.50113382  0.38239963  0.91611651     0.36500
C1999       C  0.55860520  0.42852034  0.96115789     0.06100
F2000       F  0.57315103  0.40361707  0.91429611    -0.19700
H2001       H  0.54145557  0.37120588  0.87389789     0.15900
F2002       F  0.47781508  0.37616478  0.91594399    -0.23500
H2003       H  0.50996070  0.40900079  0.95744542     0.17700
C2004       C  0.56149219  0.45141083  0.95643010     0.25700
C2005       C  0.58133248  0.47137492  0.97105730    -0.12000
C2006       C  0.59861600  0.46875940  0.99029243    -0.26000
C2007       C  0.59465471  0.44565154  0.99722191     0.36600
C2008       C  0.57486379  0.42584379  0.98286998    -0.27600
F2009       F  0.54616713  0.45464309  0.93540692    -0.19800
H2010       H  0.59064226  0.49312595  0.45940986     0.15900
F2011       F  0.61032727  0.44217167  0.01700045    -0.23500
H2012       H  0.57282314  0.40837383  0.98724834     0.17700
C2013       C  0.55052195  0.43899969  0.71366284    -0.27500
C2014       C  0.57215531  0.43915093  0.70886702     0.06100
C2015       C  0.57412903  0.41971274  0.72146848     0.25700
C2016       C  0.55442346  0.39994830  0.73645505    -0.12000
C2017       C  0.53231095  0.39910733  0.73934103    -0.26000
C2018       C  0.53081145  0.41929492  0.72883819     0.36500
C2019       C  0.59120149  0.45773485  0.68610838     0.06100
F2020       F  0.59463404  0.41908565  0.71701552    -0.19700
H2021       H  0.55632221  0.38491451  0.74468886     0.15900
F2022       F  0.51013628  0.41975404  0.73187246    -0.23500
H2023       H  0.54865327  0.45386062  0.70434819     0.17700
C2024       C  0.58584355  0.46105123  0.65063093     0.25700
C2025       C  0.60378350  0.47637024  0.62736129    -0.12000
C2026       C  0.62755835  0.48889780  0.63869203    -0.26000
C2027       C  0.63301944  0.48642600  0.67458274     0.36600
C2028       C  0.61491844  0.47076221  0.69805864    -0.27600
F2029       F  0.56339576  0.44829917  0.63764927    -0.19800
H2030       H  0.59913197  0.47792787  0.59982485     0.15900
F2031       F  0.65585209  0.49791767  0.68621633    -0.23500
H2032       H  0.61945063  0.46837869  0.72525264     0.17700
C2033       C  0.34768806  0.26539334  0.74769129    -0.27500
C2034       C  0.34696630  0.26100286  0.71022219     0.06100
C2035       C  0.36864612  0.26890213  0.69198536     0.25700
C2036       C  0.39020514  0.28166705  0.71026922    -0.12000
C2037       C  0.39101326  0.28690625  0.74736781    -0.26000
C2038       C  0.36940163  0.27792763  0.76618392     0.36500
C2039       C  0.32380689  0.24908505  0.69017695     0.06100
F2040       F  0.36914298  0.26434523  0.65633318    -0.19700
H2041       H  0.40645153  0.28786880  0.69491849     0.15900
F2042       F  0.36915436  0.28206970  0.80203300    -0.23500
H2043       H  0.33142205  0.25986566  0.76260944     0.17700
C2044       C  0.30353673  0.22970631  0.70523296     0.25700
C2045       C  0.28151915  0.22028128  0.68791432    -0.12000
C2046       C  0.27910502  0.22949076  0.65478156    -0.26000
C2047       C  0.29951537  0.24774357  0.63841274     0.36600
C2048       C  0.32152068  0.25763299  0.65618792    -0.27600
F2049       F  0.30484302  0.21993587  0.73693283    -0.19800
H2050       H  0.26608771  0.20608804  0.70099395     0.15900
F2051       F  0.29791511  0.25723552  0.60661506    -0.23500
H2052       H  0.33655257  0.27272574  0.64396471     0.17700
C2053       C  0.43797898  0.41671635  0.84274092    -0.27500
C2054       C  0.41566880  0.40551470  0.85999714     0.06100
C2055       C  0.40043990  0.38110989  0.85379612     0.25700
C2056       C  0.40824044  0.36788510  0.83382998    -0.12000
C2057       C  0.43106709  0.37874767  0.81866961    -0.26000
C2058       C  0.44564014  0.40343561  0.82218720     0.36500
C2059       C  0.40798175  0.41916042  0.88377639     0.06100
F2060       F  0.37804518  0.36995484  0.86735852    -0.19700
H2061       H  0.39676200  0.34884912  0.83142970     0.15900
F2062       F  0.46778915  0.41438539  0.80777261    -0.23500
H2063       H  0.44984730  0.43557155  0.84638763     0.17700
C2064       C  0.39763125  0.41041324  0.91792194     0.25700
C2065       C  0.38685238  0.42129244  0.93724834    -0.12000
C2066       C  0.38633350  0.44110118  0.92293459    -0.26000
C2067       C  0.39881175  0.45120897  0.89064272     0.36600
C2068       C  0.40949574  0.44033897  0.87136553    -0.27600
F2069       F  0.39717250  0.39082049  0.93199110    -0.19800
H2070       H  0.37747084  0.41322124  0.96203274     0.15900
F2071       F  0.39943880  0.47088897  0.87656366    -0.23500
H2072       H  0.41771041  0.44771821  0.84559491     0.17700
C2073       C  0.59066752  0.98749536  0.92069546    -0.27500
C2074       C  0.58299700  0.98910068  0.88567396     0.06100
C2075       C  0.56462513  0.96840611  0.87000359     0.25700
C2076       C  0.55520641  0.94658334  0.88793388    -0.12000
C2077       C  0.56364037  0.94468915  0.92210853    -0.26000
C2078       C  0.58102457  0.96556660  0.93887578     0.36500
C2079       C  0.59449603  0.01211805  0.86533352     0.06100
F2080       F  0.55580548  0.96921106  0.83716295    -0.19700
H2081       H  0.54159346  0.93087261  0.87449723     0.15900
F2082       F  0.58978146  0.96459499  0.97168747    -0.23500
H2083       H  0.60482601  0.00310705  0.93348460     0.17700
C2084       C  0.59837930  0.03327169  0.88191723     0.25700
C2085       C  0.61019045  0.05489421  0.86346520    -0.12000
C2086       C  0.61878084  0.05631565  0.82799446    -0.26000
C2087       C  0.61413842  0.03504249  0.81076079     0.36600
C2088       C  0.60213706  0.01322310  0.82930702    -0.27600
F2089       F  0.59077536  0.03312354  0.91611525    -0.19800
H2090       H  0.61314424  0.07080662  0.87756788     0.15900
F2091       F  0.62216576  0.03539039  0.77681400    -0.23500
H2092       H  0.59953630  0.99723718  0.81586539     0.17700
C2093       C  0.55718301  0.77468169  0.61857828    -0.27500
C2094       C  0.53654028  0.77639561  0.62391180     0.06100
C2095       C  0.51783513  0.75875950  0.64420444     0.25700
C2096       C  0.51894173  0.73891816  0.65634160    -0.12000
C2097       C  0.53877902  0.73621380  0.64884506    -0.26000
C2098       C  0.55840483  0.75478944  0.63113108     0.36500
C2099       C  0.53266927  0.79385783  0.60321259     0.06100
F2100       F  0.49793237  0.76018521  0.65081146    -0.19700
H2101       H  0.50386177  0.72524697  0.67080066     0.15900
F2102       F  0.57804361  0.75304095  0.62382076    -0.23500
H2103       H  0.57173204  0.78798496  0.60279308     0.17700
C2104       C  0.54849549  0.81851902  0.60447192     0.25700
C2105       C  0.54509508  0.83398169  0.58162341    -0.12000
C2106       C  0.52614721  0.82489884  0.55693800    -0.26000
C2107       C  0.50987004  0.80037553  0.55705198     0.36600
C2108       C  0.51311377  0.78515942  0.57991058    -0.27600
F2109       F  0.56735366  0.82752580  0.62721828    -0.19800
H2110       H  0.55791050  0.85275740  0.58182423     0.15900
F2111       F  0.49113997  0.78579966  0.03085743    -0.23500
H2112       H  0.50076229  0.76625400  0.57828370     0.17700
C2113       C  0.51793395  0.76209429  0.88608000    -0.27500
C2114       C  0.53829304  0.76588570  0.86714466     0.06100
C2115       C  0.55860651  0.78862297  0.86828054     0.25700
C2116       C  0.55793359  0.80745406  0.88592251    -0.12000
C2117       C  0.53702373  0.80400986  0.90274352    -0.26000
C2118       C  0.51728183  0.78085617  0.90387026     0.36500
C2119       C  0.53729612  0.74704874  0.84288523     0.06100
F2120       F  0.57892995  0.79280108  0.85140606    -0.19700
H2121       H  0.57348652  0.82495160  0.88508891     0.15900
F2122       F  0.49704026  0.77639288  0.92131956    -0.23500
H2123       H  0.50204789  0.74484427  0.88560672     0.17700
C2124       C  0.52758861  0.72318020  0.85401946     0.25700
C2125       C  0.52538537  0.70563484  0.82942830    -0.12000
C2126       C  0.53231785  0.71157928  0.79332410    -0.26000
C2127       C  0.54228366  0.73545916  0.78247592     0.36600
C2128       C  0.54471892  0.75287839  0.80696233    -0.27600
F2129       F  0.52009200  0.71679563  0.88849157    -0.19800
H2130       H  0.51752357  0.68734553  0.83823739     0.15900
F2131       F  0.54957517  0.74201246  0.74792589    -0.23500
H2132       H  0.55175544  0.77093133  0.79741306     0.17700
C2133       C  0.78674359  0.93363009  0.98251875    -0.27500
C2134       C  0.80196341  0.92502681  0.48683949     0.06100
C2135       C  0.82360952  0.93862340  0.50520562     0.25700
C2136       C  0.82667496  0.95687899  0.52855234    -0.12000
C2137       C  0.80849561  0.96238513  0.53391437    -0.26000
C2138       C  0.78716431  0.94964538  0.51453303     0.36500
C2139       C  0.79967360  0.90405175  0.96325668     0.06100
F2140       F  0.84139769  0.93331296  0.50246589    -0.19700
H2141       H  0.84310024  0.96625784  0.54357041     0.15900
F2142       F  0.77382567  0.96067098  0.00181472    -0.23500
H2143       H  0.77252601  0.92624720  0.96288903     0.17700
C2144       C  0.77908090  0.88159650  0.96466083     0.25700
C2145       C  0.77893433  0.86171684  0.94892466    -0.12000
C2146       C  0.79931612  0.86392596  0.93164956    -0.26000
C2147       C  0.81923694  0.88676064  0.92804128     0.36600
C2148       C  0.81935179  0.90649648  0.94372143    -0.27600
F2149       F  0.75970828  0.87856976  0.98325707    -0.19800
H2150       H  0.76329163  0.84442875  0.95180048     0.15900
F2151       F  0.83887041  0.89002440  0.90994044    -0.23500
H2152       H  0.83111347  0.92307611  0.43569141     0.17700
C2153       C  0.79441270  0.85273074  0.73224591    -0.27500
C2154       C  0.80983851  0.87740049  0.73462625     0.06100
C2155       C  0.82835544  0.88606146  0.76009060     0.25700
C2156       C  0.83079821  0.87051905  0.78342274    -0.12000
C2157       C  0.81492825  0.84598802  0.78206052    -0.26000
C2158       C  0.79705712  0.83706730  0.75556677     0.36500
C2159       C  0.80591361  0.89440907  0.71269510     0.06100
F2160       F  0.84319330  0.90975780  0.76418277    -0.19700
H2161       H  0.84461593  0.87782127  0.80369536     0.15900
F2162       F  0.78123079  0.81348624  0.75381262    -0.23500
H2163       H  0.78003975  0.84568815  0.71291504     0.17700
C2164       C  0.82495418  0.91307555  0.69437788     0.25700
C2165       C  0.82257828  0.93170464  0.67994722    -0.12000
C2166       C  0.80107701  0.93207033  0.68281016    -0.26000
C2167       C  0.78132581  0.91232857  0.69825726     0.36600
C2168       C  0.78382611  0.89371462  0.71325343    -0.27600
F2169       F  0.84616937  0.91369936  0.69142763    -0.19800
H2170       H  0.83790900  0.94625538  0.66724206     0.15900
F2171       F  0.76005389  0.91159607  0.70074274    -0.23500
H2172       H  0.76884803  0.87939718  0.72698566     0.17700
C2173       C  0.72820012  0.07511981  0.76006530    -0.27500
C2174       C  0.73877337  0.08280004  0.72588223     0.06100
C2175       C  0.73736972  0.10148330  0.70892138     0.25700
C2176       C  0.72428386  0.11102785  0.72461171    -0.12000
C2177       C  0.71248320  0.10239267  0.75772471    -0.26000
C2178       C  0.71530897  0.08493332  0.77606244     0.36500
C2179       C  0.74981515  0.07030181  0.70705527     0.06100
F2180       F  0.74832477  0.11025745  0.67683349    -0.19700
H2181       H  0.72279552  0.12482080  0.71019932     0.15900
F2182       F  0.70435858  0.07623784  0.80816352    -0.23500
H2183       H  0.72898143  0.06070120  0.77369480     0.17700
C2184       C  0.76586191  0.06515105  0.72499160     0.25700
C2185       C  0.77458336  0.05171379  0.70788057    -0.12000
C2186       C  0.76775323  0.04334645  0.67243275    -0.26000
C2187       C  0.75235717  0.04915911  0.65396534     0.36600
C2188       C  0.74341189  0.06240990  0.67125147    -0.27600
F2189       F  0.77310268  0.07309252  0.75907432    -0.19800
H2190       H  0.78657694  0.04758248  0.72257322     0.15900
F2191       F  0.74482317  0.04083404  0.62012721    -0.23500
H2192       H  0.73076476  0.06580810  0.65701441     0.17700
C2193       C  0.63557286  0.90744114  0.55371327    -0.27500
C2194       C  0.65578019  0.91360140  0.53270471     0.06100
C2195       C  0.65279535  0.90965596  0.49502425     0.25700
C2196       C  0.61176339  0.88874217  0.03201780    -0.12000
C2197       C  0.61006031  0.89677024  0.99739191    -0.26000
C2198       C  0.61339949  0.89942997  0.53777667     0.36500
C2199       C  0.67975371  0.92624476  0.55023190     0.06100
F2200       F  0.67137598  0.91320365  0.47383465    -0.19700
H2201       H  0.59592645  0.87589261  0.04610703     0.15900
F2202       F  0.59476805  0.89411890  0.56002805    -0.23500
H2203       H  0.63703748  0.90991807  0.58267360     0.17700
C2204       C  0.69814897  0.94687647  0.53446290     0.25700
C2205       C  0.71973329  0.96015063  0.55233726    -0.12000
C2206       C  0.72369497  0.95383693  0.58701197    -0.26000
C2207       C  0.70523821  0.93342141  0.60328040     0.36600
C2208       C  0.68363883  0.91967470  0.58487487    -0.27600
F2209       F  0.69489440  0.95525563  0.50266726    -0.19800
H2210       H  0.73322144  0.97599086  0.53912497     0.15900
F2211       F  0.70792391  0.92678644  0.63687788    -0.23500
H2212       H  0.66976824  0.90405103  0.59801514     0.17700
C2213       C  0.57444069  0.14788645  0.72159126    -0.27500
C2214       C  0.55886092  0.12866984  0.70007395     0.06100
C2215       C  0.56277602  0.10925320  0.69580173     0.25700
C2216       C  0.58261318  0.10960969  0.71181513    -0.12000
C2217       C  0.59892895  0.12947048  0.73189042    -0.26000
C2218       C  0.59421551  0.14833637  0.73741842     0.36500
C2219       C  0.54129100  0.13110601  0.67762654     0.06100
F2220       F  0.54837061  0.09075196  0.67419848    -0.19700
H2221       H  0.58581557  0.09490419  0.70707508     0.15900
F2222       F  0.60900689  0.16756032  0.75749919    -0.23500
H2223       H  0.57175699  0.16303751  0.72495597     0.17700
C2224       C  0.51663194  0.11649118  0.68198524     0.25700
C2225       C  0.50079288  0.11940056  0.65937537    -0.12000
C2226       C  0.50946086  0.13651300  0.63174141    -0.26000
C2227       C  0.53419931  0.15144861  0.62834845     0.36600
C2228       C  0.54979024  0.14878324  0.65113394    -0.27600
F2229       F  0.50795758  0.09950360  0.70792909    -0.19800
H2230       H  0.48188146  0.10781032  0.66264995     0.15900
F2231       F  0.54346298  0.16862929  0.60267640    -0.23500
H2232       H  0.56871935  0.16031212  0.64760125     0.17700
C2233       C  0.56968205  0.15186816  0.97059132    -0.27500
C2234       C  0.56841262  0.13286709  0.95069369     0.06100
C2235       C  0.54661643  0.11164258  0.94793294     0.25700
C2236       C  0.52611124  0.11005844  0.96346239    -0.12000
C2237       C  0.52717073  0.12972463  0.98144934    -0.26000
C2238       C  0.54933684  0.15042042  0.98576238     0.36500
C2239       C  0.58910191  0.13682948  0.92886718     0.06100
F2240       F  0.54487193  0.09314464  0.92819157    -0.19700
H2241       H  0.51078263  0.09391112  0.46956340     0.15900
F2242       F  0.55133181  0.16959040  0.00387042    -0.23500
H2243       H  0.58637710  0.16828816  0.97303765     0.17700
C2244       C  0.59764434  0.15464191  0.90241535     0.25700
C2245       C  0.61639819  0.15804368  0.88028853    -0.12000
C2246       C  0.62710984  0.14384162  0.88406022    -0.26000
C2247       C  0.61933728  0.12668356  0.91161116     0.36600
C2248       C  0.60021051  0.12305507  0.93369483    -0.27600
F2249       F  0.58706979  0.16803216  0.89682744    -0.19800
H2250       H  0.62205659  0.17135162  0.85923653     0.15900
F2251       F  0.62926544  0.11261061  0.91582291    -0.23500
H2252       H  0.59387347  0.10936504  0.95419628     0.17700
C2253       C  0.44376383  0.19568292  0.93030880    -0.27500
C2254       C  0.45869287  0.20575339  0.90036173     0.06100
C2255       C  0.47441442  0.19742352  0.89074176     0.25700
C2256       C  0.47604639  0.18032120  0.91195220    -0.12000
C2257       C  0.46231248  0.17162196  0.94329073    -0.26000
C2258       C  0.44569345  0.17894833  0.95179468     0.36500
C2259       C  0.45996590  0.22693864  0.88248863     0.06100
F2260       F  0.48893079  0.20661202  0.86173076    -0.19700
H2261       H  0.48911963  0.17509745  0.90527409     0.15900
F2262       F  0.43218499  0.17080554  0.98204946    -0.23500
H2263       H  0.43170485  0.20192270  0.93845197     0.17700
C2264       C  0.43954719  0.22704296  0.86967833     0.25700
C2265       C  0.44118299  0.24789495  0.85534768    -0.12000
C2266       C  0.46315220  0.26906675  0.85378624    -0.26000
C2267       C  0.48353500  0.26880433  0.86667849     0.36600
C2268       C  0.48186534  0.24799767  0.88073030    -0.27600
F2269       F  0.41807675  0.20695956  0.87074099    -0.19800
H2270       H  0.42523293  0.24746254  0.84550948     0.15900
F2271       F  0.50514842  0.28874056  0.86644044    -0.23500
H2272       H  0.49772328  0.24850787  0.89118953     0.17700
C2273       C  0.48224419  0.23221319  0.62748278    -0.27500
C2274       C  0.46088679  0.23146054  0.63656647     0.06100
C2275       C  0.43932172  0.21100686  0.62767418     0.25700
C2276       C  0.43937632  0.19159829  0.61046692    -0.12000
C2277       C  0.46090552  0.19216975  0.60218903    -0.26000
C2278       C  0.48237834  0.21292431  0.61077776     0.36500
C2279       C  0.46188335  0.25153890  0.65768139     0.06100
F2280       F  0.41827448  0.20981487  0.63556830    -0.19700
H2281       H  0.42259448  0.17603339  0.60404739     0.15900
F2282       F  0.50374343  0.21457747  0.60387705    -0.23500
H2283       H  0.49903179  0.24761571  0.63446284     0.17700
C2284       C  0.45221200  0.24766932  0.69258947     0.25700
C2285       C  0.45684519  0.26694412  0.71491468    -0.12000
C2286       C  0.47090703  0.29046931  0.70286048    -0.26000
C2287       C  0.47983811  0.29443454  0.66749997     0.36600
C2288       C  0.47550267  0.27508911  0.64524481    -0.27600
F2289       F  0.43961146  0.22530529  0.70600653    -0.19800
H2290       H  0.44978524  0.26348751  0.74212195     0.15900
F2291       F  0.49399015  0.31689075  0.65535602    -0.23500
H2292       H  0.48343010  0.27847396  0.61863170     0.17700
C2293       C  0.29867919  0.06936171  0.95779095    -0.27500
C2294       C  0.31893837  0.07180822  0.93998724     0.06100
C2295       C  0.31614289  0.06229418  0.90473754     0.25700
C2296       C  0.29351342  0.04983360  0.88888496    -0.12000
C2297       C  0.27318957  0.04609254  0.90797953    -0.26000
C2298       C  0.27615025  0.05651631  0.94236340     0.36500
C2299       C  0.34214268  0.08255120  0.95985855     0.06100
F2300       F  0.33485133  0.06345784  0.88641547    -0.19700
H2301       H  0.29176364  0.04191200  0.86251043     0.15900
F2302       F  0.25715267  0.05383986  0.96169015    -0.23500
H2303       H  0.30016324  0.07689712  0.98439528     0.17700
C2304       C  0.36380839  0.09804101  0.94292914     0.25700
C2305       C  0.38523406  0.10631384  0.96157951    -0.12000
C2306       C  0.38441266  0.10014459  0.50109707    -0.26000
C2307       C  0.36298680  0.08415362  0.51806781     0.36600
C2308       C  0.34266896  0.07705497  0.99665280    -0.27600
F2309       F  0.36446111  0.10544387  0.90848366    -0.19800
H2310       H  0.40158317  0.11762621  0.94728629     0.15900
F2311       F  0.36311369  0.07525477  0.55113429    -0.23500
H2312       H  0.32638060  0.06529337  0.01066352     0.17700
C2313       C  0.17482907  0.06656307  0.98696188    -0.27500
C2314       C  0.18987045  0.07216737  0.01683344     0.06100
C2315       C  0.20142912  0.05887737  0.02306282     0.25700
C2316       C  0.19848803  0.04082609  0.99880766    -0.12000
C2317       C  0.18411778  0.03596350  0.96800856    -0.26000
C2318       C  0.17188613  0.04877311  0.96292575     0.36500
C2319       C  0.19750275  0.09390212  0.53544788     0.06100
F2320       F  0.21886852  0.06458170  0.54767865    -0.19700
H2321       H  0.20807548  0.03127742  0.00340307     0.15900
F2322       F  0.15729114  0.04449125  0.93422503    -0.23500
H2323       H  0.16566219  0.07647796  0.98169543     0.17700
C2324       C  0.21794330  0.11623827  0.53183357     0.25700
C2325       C  0.21912994  0.13624461  0.54858826    -0.12000
C2326       C  0.19980705  0.13422506  0.56876164    -0.26000
C2327       C  0.17986012  0.11152113  0.57378019     0.36600
C2328       C  0.17875177  0.09162847  0.55708377    -0.27600
F2329       F  0.23521648  0.11345277  0.03095297    -0.19800
H2330       H  0.23460945  0.15346255  0.54421192     0.15900
F2331       F  0.16108169  0.10857788  0.59397781    -0.23500
H2332       H  0.16280870  0.07454404  0.55979289     0.17700
C2333       C  0.17998045  0.09095926  0.81187566    -0.27500
C2334       C  0.20016545  0.10814094  0.79368317     0.06100
C2335       C  0.22060553  0.10576413  0.79255826     0.25700
C2336       C  0.22012375  0.08548950  0.80704329    -0.12000
C2337       C  0.19917964  0.06725397  0.82246376    -0.26000
C2338       C  0.17939979  0.07070714  0.82611962     0.36500
C2339       C  0.19779792  0.12518757  0.76982465     0.06100
F2340       F  0.24031103  0.12199191  0.77482428    -0.19700
H2341       H  0.23565379  0.08342345  0.80424489     0.15900
F2342       F  0.15910414  0.05410897  0.84218949    -0.23500
H2343       H  0.16410051  0.09254616  0.81303245     0.17700
C2344       C  0.18169023  0.11611679  0.74111078     0.25700
C2345       C  0.17945033  0.13136564  0.71713586    -0.12000
C2346       C  0.19325662  0.15615876  0.72086292    -0.26000
C2347       C  0.20908532  0.16545192  0.75019549     0.36600
C2348       C  0.21145852  0.14996008  0.77441249    -0.27600
F2349       F  0.16868306  0.09232312  0.73537509    -0.19800
H2350       H  0.16711602  0.12360457  0.69493869     0.15900
F2351       F  0.22286640  0.18927816  0.75458511    -0.23500
H2352       H  0.22399313  0.15721203  0.79643798     0.17700
C2353       C  0.38858150  0.86182151  0.55951123    -0.27500
C2354       C  0.41075737  0.86639772  0.57298338     0.06100
C2355       C  0.41411554  0.86695625  0.61038483     0.25700
C2356       C  0.39561217  0.86270826  0.63385917    -0.12000
C2357       C  0.37325708  0.85792713  0.62076357    -0.26000
C2358       C  0.36998653  0.85788154  0.58321292     0.36500
C2359       C  0.43009962  0.86902350  0.54867684     0.06100
F2360       F  0.43511935  0.87077058  0.62426261    -0.19700
H2361       H  0.39887531  0.86315094  0.66257818     0.15900
F2362       F  0.34877321  0.85341528  0.56943442    -0.23500
H2363       H  0.38567920  0.86118656  0.53068128     0.17700
C2364       C  0.42756163  0.84953451  0.52850042     0.25700
C2365       C  0.44725032  0.85044000  0.51133525    -0.12000
C2366       C  0.46979683  0.87088237  0.51357869    -0.26000
C2367       C  0.47195302  0.89097187  0.53179674     0.36600
C2368       C  0.45228608  0.88989409  0.54949992    -0.27600
F2369       F  0.40642124  0.82905273  0.52748549    -0.19800
H2370       H  0.44586686  0.83032078  0.00872853     0.15900
F2371       F  0.49328661  0.91111571  0.53443006    -0.23500
H2372       H  0.45455118  0.90506295  0.56506993     0.17700
C2373       C  0.44773586  0.84389270  0.83773223    -0.27500
C2374       C  0.45615934  0.86266573  0.81293310     0.06100
C2375       C  0.48077715  0.87860781  0.81105501     0.25700
C2376       C  0.49643959  0.87596556  0.83448186    -0.12000
C2377       C  0.48762489  0.85764119  0.86025829    -0.26000
C2378       C  0.46315113  0.84133024  0.86098672     0.36500
C2379       C  0.43845722  0.86554319  0.79115971     0.06100
F2380       F  0.48957404  0.89679096  0.78704007    -0.19700
H2381       H  0.51520973  0.88885351  0.83369245     0.15900
F2382       F  0.45394255  0.82317427  0.88509638    -0.23500
H2383       H  0.42887971  0.83153732  0.84006990     0.17700
C2384       C  0.42015316  0.84572024  0.77357814     0.25700
C2385       C  0.40029654  0.84643112  0.76061630    -0.12000
C2386       C  0.39825581  0.86698815  0.76432944    -0.26000
C2387       C  0.41747579  0.88755132  0.77914268     0.36600
C2388       C  0.43734894  0.88672511  0.79267837    -0.27600
F2389       F  0.42099636  0.82522128  0.77038356    -0.19800
H2390       H  0.38613367  0.83053911  0.74840053     0.15900
F2391       F  0.41648196  0.90794440  0.78258904    -0.23500
H2392       H  0.45117707  0.90218844  0.80625967     0.17700
C2393       C  0.26358073  0.89987687  0.79794422    -0.27500
C2394       C  0.26063312  0.91730069  0.77998403     0.06100
C2395       C  0.26884232  0.92305870  0.74412453     0.25700
C2396       C  0.28067832  0.91226809  0.72729815    -0.12000
C2397       C  0.28451536  0.89554275  0.74591941    -0.26000
C2398       C  0.27512181  0.88894658  0.78114006     0.36500
C2399       C  0.24937834  0.92960726  0.79909295     0.06100
F2400       F  0.26653527  0.94004718  0.72605956    -0.19700
H2401       H  0.28792466  0.91791374  0.70047911     0.15900
F2402       F  0.27755660  0.87219438  0.79977200    -0.23500
H2403       H  0.25708366  0.89486126  0.82526963     0.17700
C2404       C  0.22846824  0.92834739  0.78584572     0.25700
C2405       C  0.21858995  0.94083370  0.80296049    -0.12000
C2406       C  0.22911159  0.95463762  0.83399634    -0.26000
C2407       C  0.24966610  0.95533741  0.84796176     0.36600
C2408       C  0.25960399  0.94284499  0.83070822    -0.27600
F2409       F  0.21755796  0.91496200  0.75633617    -0.19800
H2410       H  0.20280020  0.94001822  0.79156366     0.15900
F2411       F  0.26098626  0.96927158  0.87682249    -0.23500
H2412       H  0.27575167  0.94409835  0.84138723     0.17700
C2413       C  0.39275261  0.98274302  0.66465603    -0.27500
C2414       C  0.40109960  0.98335147  0.62929096     0.06100
C2415       C  0.39792557  0.96205760  0.61406169     0.25700
C2416       C  0.38577988  0.94070210  0.63315070    -0.12000
C2417       C  0.37667214  0.93991510  0.66799944    -0.26000
C2418       C  0.38066918  0.96131820  0.68387957     0.36500
C2419       C  0.41288483  0.00619140  0.60873596     0.06100
F2420       F  0.40668703  0.96188221  0.58084106    -0.19700
H2421       H  0.38311954  0.92443833  0.62020919     0.15900
F2422       F  0.37169880  0.96134559  0.71696889    -0.23500
H2423       H  0.39493352  0.99894123  0.67710761     0.17700
C2424       C  0.40600227  0.00805841  0.57324405     0.25700
C2425       C  0.41583674  0.03027373  0.55592630    -0.12000
C2426       C  0.43236949  0.05101884  0.57385138    -0.26000
C2427       C  0.43999568  0.04888544  0.60859578     0.36600
C2428       C  0.43040061  0.02680125  0.62565305    -0.27600
F2429       F  0.38858464  0.98875118  0.55622156    -0.19800
H2430       H  0.40939545  0.03143777  0.52948745     0.15900
F2431       F  0.45630988  0.06836671  0.62668409    -0.23500
H2432       H  0.43629859  0.02588781  0.65262521     0.17700
C2433       C  0.91788107  0.79158245  0.73649907    -0.27500
C2434       C  0.92325601  0.79483681  0.77332031     0.06100
C2435       C  0.94642091  0.80124437  0.78465990     0.25700
C2436       C  0.96393091  0.80459234  0.75912854    -0.12000
C2437       C  0.95860735  0.80210161  0.72206020    -0.26000
C2438       C  0.93522078  0.79524223  0.71116165     0.36500
C2439       C  0.90465016  0.79313511  0.79846499     0.06100
F2440       F  0.95207565  0.80436478  0.82023436    -0.19700
H2441       H  0.98173758  0.80981579  0.76819782     0.15900
F2442       F  0.92898208  0.79212696  0.67577537    -0.23500
H2443       H  0.90023661  0.78686992  0.72715707     0.17700
C2444       C  0.90793308  0.81321849  0.81779828     0.25700
C2445       C  0.88854562  0.81351587  0.83393716    -0.12000
C2446       C  0.86553132  0.79384463  0.83112825    -0.26000
C2447       C  0.86261069  0.77302289  0.81433889     0.36600
C2448       C  0.88201476  0.77281577  0.79794415    -0.27600
F2449       F  0.92941847  0.83330142  0.81833454    -0.19800
H2450       H  0.89140105  0.82966260  0.84717372     0.15900
F2451       F  0.84083246  0.75346011  0.81146395    -0.23500
H2452       H  0.87914304  0.75718068  0.78307606     0.17700
C2453       C  0.86406300  0.78018489  0.99245990    -0.27500
C2454       C  0.86911922  0.79098948  0.02655557     0.06100
C2455       C  0.85762143  0.80373898  0.03727708     0.25700
C2456       C  0.84263650  0.80689951  0.01319681    -0.12000
C2457       C  0.83924395  0.79762236  0.97812408    -0.26000
C2458       C  0.84941098  0.78352422  0.96844357     0.36500
C2459       C  0.89242468  0.79583032  0.54254241     0.06100
F2460       F  0.86169131  0.81395098  0.07041662    -0.19700
H2461       H  0.83494678  0.81777822  0.02112356     0.15900
F2462       F  0.84609381  0.77390459  0.93490203    -0.23500
H2463       H  0.88144764  0.77969384  0.47453126     0.17700
C2464       C  0.89470766  0.77536357  0.54560014     0.25700
C2465       C  0.91500308  0.77673585  0.56111423    -0.12000
C2466       C  0.93347027  0.79854818  0.57362677    -0.26000
C2467       C  0.93047852  0.81872940  0.57262496     0.36600
C2468       C  0.91014292  0.81731370  0.55712785    -0.27600
F2469       F  0.87762216  0.75417849  0.53250685    -0.19800
H2470       H  0.91663632  0.76085937  0.56204800     0.15900
F2471       F  0.94742035  0.83999983  0.58570383    -0.23500
H2472       H  0.90707821  0.83013633  0.05322473     0.17700
C2473       C  0.11372512  0.89178751  0.94706297    -0.27500
C2474       C  0.09368452  0.89291607  0.95921455     0.06100
C2475       C  0.09311424  0.91417205  0.95455899     0.25700
C2476       C  0.11224386  0.93390848  0.93860174    -0.12000
C2477       C  0.13261407  0.93315130  0.92699625    -0.26000
C2478       C  0.13295595  0.91161155  0.93084167     0.36500
C2479       C  0.07597709  0.87585719  0.48392867     0.06100
F2480       F  0.07459914  0.91632470  0.96738673    -0.19700
H2481       H  0.11131920  0.95013018  0.93632983     0.15900
F2482       F  0.15183935  0.90969533  0.91923750    -0.23500
H2483       H  0.12104821  0.88393360  0.47631704     0.17700
C2484       C  0.05312560  0.85913019  0.47160109     0.25700
C2485       C  0.03550664  0.84412313  0.49624889    -0.12000
C2486       C  0.04038998  0.84592299  0.53344241    -0.26000
C2487       C  0.06352885  0.86215007  0.54527317     0.36600
C2488       C  0.08095623  0.87680070  0.52083063    -0.27600
F2489       F  0.04788403  0.85729304  0.43590333    -0.19800
H2490       H  0.01795141  0.83164608  0.48643208     0.15900
F2491       F  0.06945180  0.86394693  0.58072747    -0.23500
H2492       H  0.09902857  0.87419729  0.02112389     0.17700
C2493       C  0.13261277  0.92036779  0.75716997    -0.27500
C2494       C  0.12452620  0.92597901  0.72563163     0.06100
C2495       C  0.13300473  0.95004047  0.71672750     0.25700
C2496       C  0.14842884  0.96805648  0.74026724    -0.12000
C2497       C  0.15508488  0.96205213  0.77288762    -0.26000
C2498       C  0.14765996  0.93818553  0.78063329     0.36500
C2499       C  0.10483678  0.90640497  0.70570711     0.06100
F2500       F  0.12565571  0.95599984  0.68614293    -0.19700
H2501       H  0.15397173  0.98643069  0.73413881     0.15900
F2502       F  0.15405768  0.93204543  0.81199030    -0.23500
H2503       H  0.12605168  0.90203173  0.76488332     0.17700
C2504       C  0.10573489  0.88574516  0.69648322     0.25700
C2505       C  0.08541875  0.86559498  0.68397726    -0.12000
C2506       C  0.06381569  0.86562157  0.68074714    -0.26000
C2507       C  0.06314798  0.88659821  0.68923846     0.36600
C2508       C  0.08351004  0.90674191  0.70136198    -0.27600
F2509       F  0.12613269  0.88487189  0.70053918    -0.19800
H2510       H  0.08650676  0.84982216  0.67749070     0.15900
F2511       F  0.04268603  0.88754913  0.68711460    -0.23500
H2512       H  0.08226644  0.92223480  0.70924456     0.17700
C2513       C  0.07336119  0.72618443  0.49297826    -0.27500
C2514       C  0.08234402  0.73729222  0.52663802     0.06100
C2515       C  0.10187504  0.73623988  0.54114960     0.25700
C2516       C  0.10672640  0.71668111  0.03334130    -0.12000
C2517       C  0.10126452  0.70950140  0.99698306    -0.26000
C2518       C  0.08302743  0.71364052  0.47500332     0.36500
C2519       C  0.07100970  0.74933784  0.54685625     0.06100
F2520       F  0.11195998  0.74750603  0.57254008    -0.19700
H2521       H  0.11818615  0.71214896  0.04865026     0.15900
F2522       F  0.08059813  0.70966480  0.94341514    -0.23500
H2523       H  0.05822919  0.72646729  0.48111197     0.17700
C2524       C  0.06457510  0.76451967  0.52904514     0.25700
C2525       C  0.05267360  0.77447713  0.54755086    -0.12000
C2526       C  0.04681783  0.76978001  0.58444198    -0.26000
C2527       C  0.05421882  0.75552908  0.60282094     0.36600
C2528       C  0.06603529  0.74535049  0.58414646    -0.27600
F2529       F  0.06977958  0.76981467  0.49361235    -0.19800
H2530       H  0.04752968  0.78560047  0.53256671     0.15900
F2531       F  0.04891425  0.75032899  0.63823575    -0.23500
H2532       H  0.07055602  0.73361852  0.59868171     0.17700
C2533       C  0.24336320  0.75646712  0.64438940    -0.27500
C2534       C  0.22952755  0.76048895  0.61935833     0.06100
C2535       C  0.23387117  0.78377313  0.61369951     0.25700
C2536       C  0.25229451  0.80284038  0.63217685    -0.12000
C2537       C  0.26699007  0.79901866  0.65595209    -0.26000
C2538       C  0.26196789  0.77551888  0.66255632     0.36500
C2539       C  0.21317289  0.74096471  0.59546549     0.06100
F2540       F  0.22108184  0.78816568  0.58894125    -0.19700
H2541       H  0.25584031  0.82071590  0.62646420     0.15900
F2542       F  0.27531718  0.77096819  0.68601998    -0.23500
H2543       H  0.24034813  0.73863055  0.64873832     0.17700
C2544       C  0.22183471  0.73721815  0.56292721     0.25700
C2545       C  0.20670231  0.71929106  0.53946594    -0.12000
C2546       C  0.18248984  0.70459521  0.54781162    -0.26000
C2547       C  0.17391569  0.70796635  0.58101434     0.36600
C2548       C  0.18922394  0.72611752  0.60462984    -0.27600
F2549       F  0.24497539  0.75117024  0.55364212    -0.19800
H2550       H  0.18291963  0.73322093  0.01789323     0.15900
F2551       F  0.15073348  0.69430829  0.59015659    -0.23500
H2552       H  0.18236934  0.72878614  0.62982698     0.17700
C2553       C  0.21388481  0.77290310  0.88504891    -0.27500
C2554       C  0.23563068  0.77379475  0.87771409     0.06100
C2555       C  0.23826459  0.75411297  0.88641195     0.25700
C2556       C  0.21924301  0.73360004  0.90083169    -0.12000
C2557       C  0.19707356  0.73214835  0.90690996    -0.26000
C2558       C  0.19479054  0.75236571  0.89978490     0.36500
C2559       C  0.25415915  0.79335898  0.85586495     0.06100
F2560       F  0.25876355  0.75410701  0.87860240    -0.19700
H2561       H  0.22172741  0.71850754  0.90611964     0.15900
F2562       F  0.17401660  0.75214986  0.90604369    -0.23500
H2563       H  0.21149293  0.78787286  0.87827165     0.17700
C2564       C  0.24907430  0.79601357  0.81997489     0.25700
C2565       C  0.26723671  0.81099377  0.79672582    -0.12000
C2566       C  0.29088017  0.82381851  0.80865530    -0.26000
C2567       C  0.29589035  0.82248687  0.84519062     0.36600
C2568       C  0.27760567  0.80708435  0.86856719    -0.27600
F2569       F  0.22682311  0.78262204  0.80656916    -0.19800
H2570       H  0.26293439  0.81183824  0.76872643     0.15900
F2571       F  0.31852963  0.83459114  0.85755736    -0.23500
H2572       H  0.28185732  0.80512180  0.89613598     0.17700
C2573       C  0.89664607  0.63658542  0.70698371    -0.27500
C2574       C  0.91706390  0.65628327  0.72053992     0.06100
C2575       C  0.92635633  0.65408482  0.75386103     0.25700
C2576       C  0.91593310  0.63229046  0.77231131    -0.12000
C2577       C  0.89614985  0.61231924  0.75781176    -0.26000
C2578       C  0.88623641  0.61489593  0.72540433     0.36500
C2579       C  0.92853299  0.67908965  0.70011724     0.06100
F2580       F  0.94632279  0.67265698  0.76756676    -0.19700
H2581       H  0.92418151  0.63067055  0.79674147     0.15900
F2582       F  0.86669268  0.59617294  0.71106454    -0.23500
H2583       H  0.88884774  0.63794964  0.68189508     0.17700
C2584       C  0.93541456  0.68023399  0.66366671     0.25700
C2585       C  0.94800982  0.70230020  0.64605751    -0.12000
C2586       C  0.95390316  0.72349052  0.66450822    -0.26000
C2587       C  0.94563930  0.72204328  0.70020735     0.36600
C2588       C  0.93322101  0.70015314  0.71765824    -0.27600
F2589       F  0.93113543  0.66019755  0.64571607    -0.19800
H2590       H  0.95418200  0.70289380  0.61871255     0.15900
F2591       F  0.94998555  0.74194108  0.71868602    -0.23500
H2592       H  0.92753981  0.69968459  0.74528984     0.17700
C2593       C  0.76996621  0.55121648  0.63230075    -0.27500
C2594       C  0.77320659  0.53162918  0.62524286     0.06100
C2595       C  0.75725757  0.51356934  0.60216242     0.25700
C2596       C  0.73764550  0.51438106  0.58827247    -0.12000
C2597       C  0.73366555  0.53331378  0.59676809    -0.26000
C2598       C  0.75041605  0.55217235  0.61803485     0.36500
C2599       C  0.79112670  0.52851739  0.64571712     0.06100
F2600       F  0.76030828  0.49478725  0.59384931    -0.19700
H2601       H  0.72526958  0.49991322  0.57134399     0.15900
F2602       F  0.74714634  0.57073774  0.62693190    -0.23500
H2603       H  0.78188056  0.56516364  0.65037210     0.17700
C2604       C  0.81504725  0.54651806  0.64755257     0.25700
C2605       C  0.83088989  0.54396796  0.67044299    -0.12000
C2606       C  0.82283386  0.52387642  0.69258603    -0.26000
C2607       C  0.79918021  0.50552534  0.68959482     0.36600
C2608       C  0.78359424  0.50778226  0.66617766    -0.27600
F2609       F  0.82286728  0.56676802  0.62806383    -0.19800
H2610       H  0.84905200  0.55827306  0.67247151     0.15900
F2611       F  0.79088618  0.48577167  0.71046703    -0.23500
H2612       H  0.76522330  0.49379646  0.66547593     0.17700
C2613       C  0.72783942  0.50755752  0.91856079    -0.27500
C2614       C  0.73834404  0.52718436  0.89526742     0.06100
C2615       C  0.72957242  0.54328051  0.89493727     0.25700
C2616       C  0.71141890  0.54026288  0.91887473    -0.12000
C2617       C  0.70199682  0.52132452  0.94357619    -0.26000
C2618       C  0.70997102  0.50464612  0.94247131     0.36500
C2619       C  0.75910555  0.53077715  0.87327328     0.06100
F2620       F  0.73869048  0.56198243  0.87186021    -0.19700
H2621       H  0.70553259  0.55330768  0.91928027     0.15900
F2622       F  0.70085921  0.48574061  0.96521028    -0.23500
H2623       H  0.73417882  0.49485775  0.91929512     0.17700
C2624       C  0.78110129  0.55190594  0.87562143     0.25700
C2625       C  0.80162491  0.55307224  0.86074533    -0.12000
C2626       C  0.80058080  0.53316615  0.84355395    -0.26000
C2627       C  0.77824338  0.51261858  0.83921951     0.36600
C2628       C  0.75785352  0.51152817  0.85390571    -0.27600
F2629       F  0.78312806  0.57080082  0.89454867    -0.19800
H2630       H  0.81849189  0.56913373  0.86427290     0.15900
F2631       F  0.77607751  0.49321357  0.82162033    -0.23500
H2632       H  0.74110613  0.49518318  0.85140836     0.17700
C2633       C  0.96790186  0.56697963  0.88500076    -0.27500
C2634       C  0.98879266  0.58339605  0.86739760     0.06100
C2635       C  0.98709260  0.59002509  0.83168234     0.25700
C2636       C  0.96485940  0.58131362  0.81491338    -0.12000
C2637       C  0.94388664  0.56591757  0.83339201    -0.26000
C2638       C  0.94576838  0.55831577  0.86838151     0.36500
C2639       C  0.01206302  0.59401341  0.88678183     0.06100
F2640       F  0.00680226  0.60589530  0.81358427    -0.19700
H2641       H  0.96400702  0.58742983  0.78807388     0.15900
F2642       F  0.92614549  0.54261903  0.88691212    -0.23500
H2643       H  0.96867975  0.56098371  0.91196734     0.17700
C2644       C  0.01464324  0.60344399  0.92194188     0.25700
C2645       C  0.03699759  0.61499405  0.93872597    -0.12000
C2646       C  0.05726324  0.61758550  0.92076833    -0.26000
C2647       C  0.05442224  0.60709326  0.88638329     0.36600
C2648       C  0.03211459  0.59543365  0.86978603    -0.27600
F2649       F  0.99583845  0.60275799  0.93931027    -0.19800
H2650       H  0.03864801  0.62304206  0.96497194     0.15900
F2651       F  0.07334157  0.60848048  0.86835908    -0.23500
H2652       H  0.03058593  0.58778522  0.84324983     0.17700
C2653       C  0.76731785  0.21188290  0.87784622    -0.27500
C2654       C  0.77092800  0.23505252  0.87380348     0.06100
C2655       C  0.75541161  0.23869073  0.85167467     0.25700
C2656       C  0.73565128  0.21926950  0.83620532    -0.12000
C2657       C  0.73112747  0.19590644  0.84218375    -0.26000
C2658       C  0.74769413  0.19246145  0.86210666     0.36500
C2659       C  0.78832837  0.25447497  0.89718132     0.06100
F2660       F  0.75834292  0.26081133  0.84719742    -0.19700
H2661       H  0.72341023  0.22246962  0.82048477     0.15900
F2662       F  0.74417236  0.17028004  0.86843982    -0.23500
H2663       H  0.77914105  0.20873333  0.89471778     0.17700
C2664       C  0.78628418  0.25154708  0.93473934     0.25700
C2665       C  0.80123368  0.27001125  0.95749177    -0.12000
C2666       C  0.81875494  0.29195187  0.94361088    -0.26000
C2667       C  0.82126047  0.29486526  0.90593092     0.36600
C2668       C  0.80593400  0.27627082  0.88289526    -0.27600
F2669       F  0.76912692  0.23104364  0.94958803    -0.19800
H2670       H  0.80168861  0.26872472  0.49778690     0.15900
F2671       F  0.83789487  0.31576069  0.89144818    -0.23500
H2672       H  0.80770162  0.27888559  0.85396564     0.17700
C2673       C  0.75795599  0.25059465  0.61299849    -0.27500
C2674       C  0.75892669  0.23013996  0.62260386     0.06100
C2675       C  0.78010227  0.22952252  0.61703080     0.25700
C2676       C  0.80041926  0.24976102  0.60418125    -0.12000
C2677       C  0.79988956  0.27090395  0.59716377    -0.26000
C2678       C  0.77812321  0.27079390  0.60067796     0.36500
C2679       C  0.73973226  0.21237132  0.64565214     0.06100
F2680       F  0.78162653  0.21005098  0.62651019    -0.19700
H2681       H  0.81677975  0.24921158  0.60130428     0.15900
F2682       F  0.77637988  0.29050109  0.59379732    -0.23500
H2683       H  0.74183203  0.25142185  0.61737302     0.17700
C2684       C  0.73586796  0.22000283  0.67903940     0.25700
C2685       C  0.71794221  0.20431853  0.70159443    -0.12000
C2686       C  0.70338869  0.18026179  0.69211788    -0.26000
C2687       C  0.70685268  0.17250475  0.65821551     0.36600
C2688       C  0.72510100  0.18854330  0.63515613    -0.27600
F2689       F  0.74992796  0.24273446  0.69035703    -0.19800
H2690       H  0.71589207  0.21119704  0.72719558     0.15900
F2691       F  0.69307260  0.14959217  0.64769713    -0.23500
H2692       H  0.72777967  0.18246121  0.60926737     0.17700
C2693       C  0.89800111  0.45809248  0.71089869    -0.27500
C2694       C  0.87852855  0.43496331  0.71387410     0.06100
C2695       C  0.85891909  0.43135755  0.73484021     0.25700
C2696       C  0.85775599  0.45079232  0.74896410    -0.12000
C2697       C  0.87619056  0.47410196  0.74288586    -0.26000
C2698       C  0.89691989  0.47755782  0.72531504     0.36500
C2699       C  0.87675906  0.41575729  0.68985947     0.06100
F2700       F  0.83995336  0.40929341  0.73904660    -0.19700
H2701       H  0.84189644  0.44764323  0.76337546     0.15900
F2702       F  0.91536144  0.49975938  0.71963634    -0.23500
H2703       H  0.91348379  0.46122177  0.69542891     0.17700
C2704       C  0.88009234  0.42000968  0.65257918     0.25700
C2705       C  0.87485303  0.40142933  0.62881577    -0.12000
C2706       C  0.86615200  0.37809213  0.64134501    -0.26000
C2707       C  0.86394525  0.37385372  0.67870876     0.36600
C2708       C  0.86907726  0.39260115  0.70279078    -0.27600
F2709       F  0.88691402  0.44187714  0.63871950    -0.19800
H2710       H  0.87709650  0.40529165  0.60018366     0.15900
F2711       F  0.85571848  0.35156378  0.69177232    -0.23500
H2712       H  0.86645303  0.38894508  0.73142569     0.17700
C2713       C  0.85462920  0.42653540  0.97263809    -0.27500
C2714       C  0.87514729  0.44277169  0.95416682     0.06100
C2715       C  0.89461899  0.43878889  0.95234484     0.25700
C2716       C  0.89285137  0.41795785  0.96650781    -0.12000
C2717       C  0.87158902  0.40072929  0.98239792    -0.26000
C2718       C  0.85276892  0.40564412  0.98662421     0.36500
C2719       C  0.87424806  0.46095703  0.93124658     0.06100
F2720       F  0.91485086  0.45444923  0.93509356    -0.19700
H2721       H  0.90745637  0.41840469  0.48130009     0.15900
F2722       F  0.83225524  0.38995873  0.00321658    -0.23500
H2723       H  0.83944338  0.42929746  0.97418432     0.17700
C2724       C  0.87626049  0.45952742  0.89381367     0.25700
C2725       C  0.87207947  0.47409509  0.87110859    -0.12000
C2726       C  0.86562792  0.49041736  0.88495072    -0.26000
C2727       C  0.86466321  0.49273251  0.92253627     0.36600
C2728       C  0.86864276  0.47778161  0.94555803    -0.27600
F2729       F  0.88078923  0.44293809  0.87897129    -0.19800
H2730       H  0.87337418  0.47211080  0.84229139     0.15900
F2731       F  0.85891021  0.50855462  0.93686976    -0.23500
H2732       H  0.86685792  0.47893380  0.97443446     0.17700
C2733       C  0.92761835  0.22923003  0.95651726    -0.27500
C2734       C  0.92929873  0.25023150  0.94309557     0.06100
C2735       C  0.94254677  0.26031894  0.91143658     0.25700
C2736       C  0.95448425  0.24982000  0.89420820    -0.12000
C2737       C  0.95347062  0.22921004  0.90845002    -0.26000
C2738       C  0.93949806  0.21877731  0.93944737     0.36500
C2739       C  0.91750561  0.26166526  0.96265573     0.06100
F2740       F  0.94491383  0.28096477  0.89830230    -0.19700
H2741       H  0.96554069  0.25849765  0.87097618     0.15900
F2742       F  0.93781026  0.19869398  0.95382588    -0.23500
H2743       H  0.91733117  0.22109504  0.98062155     0.17700
C2744       C  0.89837440  0.26277564  0.94700493     0.25700
C2745       C  0.89041377  0.28186698  0.46937296    -0.12000
C2746       C  0.89475995  0.28803937  0.50620756    -0.26000
C2747       C  0.91518333  0.28365119  0.01483695     0.36600
C2748       C  0.92544496  0.27167352  0.99705642    -0.27600
F2749       F  0.88987747  0.25273190  0.91429000    -0.19800
H2750       H  0.87919694  0.28654096  0.45371014     0.15900
F2751       F  0.92452505  0.29469547  0.04666123    -0.23500
H2752       H  0.94017842  0.27092491  0.00954942     0.17700
C2753       C  0.06007199  0.20122559  0.72409233    -0.27500
C2754       C  0.07911200  0.19841289  0.73627197     0.06100
C2755       C  0.07852545  0.19011257  0.77131146     0.25700
C2756       C  0.05979281  0.18562274  0.79432384    -0.12000
C2757       C  0.04102827  0.18927259  0.78312465    -0.26000
C2758       C  0.04112789  0.19677946  0.74738479     0.36500
C2759       C  0.09955870  0.20339834  0.71284558     0.06100
F2760       F  0.09611287  0.18616709  0.78326306    -0.19700
H2761       H  0.06031416  0.17960555  0.82136746     0.15900
F2762       F  0.02322941  0.20008911  0.73508624    -0.23500
H2763       H  0.06010397  0.20721513  0.69683011     0.17700
C2764       C  0.09687225  0.18803171  0.68429903     0.25700
C2765       C  0.11689501  0.18949347  0.66748196    -0.12000
C2766       C  0.13990252  0.20643874  0.67856368    -0.26000
C2767       C  0.14257691  0.22284543  0.70557591     0.36600
C2768       C  0.12249344  0.22117053  0.72273941    -0.27600
F2769       F  0.07498815  0.17042156  0.67465603    -0.19800
H2770       H  0.11444211  0.17667007  0.64671842     0.15900
F2771       F  0.16447762  0.23908979  0.71749535    -0.23500
H2772       H  0.12483245  0.23295368  0.74506470     0.17700
C2773       C  0.14551270  0.20876257  0.47466790    -0.27500
C2774       C  0.12088850  0.19386527  0.47873680     0.06100
C2775       C  0.11246304  0.17624179  0.50545211     0.25700
C2776       C  0.12825056  0.17427158  0.52882398    -0.12000
C2777       C  0.15284752  0.18958794  0.52583201    -0.26000
C2778       C  0.16148259  0.20646255  0.49781715     0.36500
C2779       C  0.10823933  0.20491955  0.96065730     0.06100
F2780       F  0.12863347  0.23550875  0.02097992    -0.19700
H2781       H  0.12114457  0.16114041  0.55012846     0.15900
F2782       F  0.18511163  0.22164598  0.49429913    -0.23500
H2783       H  0.15227148  0.22248340  0.45422620     0.17700
C2784       C  0.10766592  0.22474499  0.94635492     0.25700
C2785       C  0.08643904  0.22240730  0.93267944    -0.12000
C2786       C  0.06540385  0.20028004  0.93313296    -0.26000
C2787       C  0.06625191  0.18034798  0.94675360     0.36600
C2788       C  0.08746876  0.18273031  0.96024202    -0.27600
F2789       F  0.11557087  0.23476863  0.48718192    -0.19800
H2790       H  0.08643459  0.23797669  0.92200625     0.15900
F2791       F  0.04646621  0.15864172  0.94823109    -0.23500
H2792       H  0.08748460  0.16732730  0.97165812     0.17700
C2793       C  0.94437193  0.13868798  0.03081225    -0.27500
C2794       C  0.92089975  0.12523882  0.01810595     0.06100
C2795       C  0.91614421  0.12695672  0.98162099     0.25700
C2796       C  0.93451313  0.14113874  0.95818018    -0.12000
C2797       C  0.95804096  0.15405740  0.97043487    -0.26000
C2798       C  0.96287066  0.15320321  0.00716877     0.36500
C2799       C  0.90532494  0.10650382  0.55339810     0.06100
F2800       F  0.89390912  0.11375858  0.96804878    -0.19700
H2801       H  0.93037575  0.14162223  0.92998661     0.15900
F2802       F  0.98547750  0.16523179  0.01969134    -0.23500
H2803       H  0.95333985  0.13495671  0.56426557     0.17700
C2804       C  0.90696933  0.08613488  0.56144771     0.25700
C2805       C  0.88758743  0.06608408  0.57645167    -0.12000
C2806       C  0.86621042  0.06595819  0.58425619    -0.26000
C2807       C  0.86553365  0.08728118  0.57981799     0.36600
C2808       C  0.88478518  0.10719697  0.56397901    -0.27600
F2809       F  0.92516078  0.08930080  0.05627471    -0.19800
H2810       H  0.88902271  0.05026233  0.58048130     0.15900
F2811       F  0.84602301  0.08868377  0.58948391    -0.23500
H2812       H  0.88332113  0.12288284  0.55866765     0.17700
C2813       C  0.91137943  0.09186472  0.80389367    -0.27500
C2814       C  0.89257326  0.09508052  0.79199820     0.06100
C2815       C  0.89451899  0.11766247  0.79598553     0.25700
C2816       C  0.91528467  0.13675939  0.80995424    -0.12000
C2817       C  0.93453050  0.13378616  0.82045162    -0.26000
C2818       C  0.93210750  0.11089228  0.81792781     0.36500
C2819       C  0.87238162  0.07553680  0.77207914     0.06100
F2820       F  0.87641449  0.12135695  0.78605949    -0.19700
H2821       H  0.91641262  0.15398738  0.81200094     0.15900
F2822       F  0.94990741  0.10683637  0.82831376    -0.23500
H2823       H  0.91043013  0.07474953  0.80097490     0.17700
C2824       C  0.86616232  0.07994981  0.73777717     0.25700
C2825       C  0.84997034  0.06123991  0.71645293    -0.12000
C2826       C  0.83979206  0.03761318  0.72827411    -0.26000
C2827       C  0.84478780  0.03302766  0.76327791     0.36600
C2828       C  0.86108965  0.05192991  0.78498287    -0.27600
F2829       F  0.87733226  0.10208718  0.72328595    -0.19800
H2830       H  0.84645390  0.06512262  0.68945751     0.15900
F2831       F  0.83545107  0.01036230  0.77534176    -0.23500
H2832       H  0.86563029  0.04806692  0.81125585     0.17700
C2833       C  0.98464305  0.39739397  0.58133090    -0.27500
C2834       C  0.98619022  0.40711302  0.61599767     0.06100
C2835       C  0.96552938  0.40524997  0.63151857     0.25700
C2836       C  0.94366613  0.39237241  0.61410620    -0.12000
C2837       C  0.94182328  0.38128308  0.58058690    -0.26000
C2838       C  0.96268907  0.38466382  0.56365019     0.36500
C2839       C  0.00917798  0.41836273  0.63603896     0.06100
F2840       F  0.96639480  0.41570305  0.66368939    -0.19700
H2841       H  0.92792203  0.39051548  0.62743111     0.15900
F2842       F  0.96171302  0.37439860  0.53127199    -0.23500
H2843       H  0.00033609  0.39877476  0.56856551     0.17700
C2844       C  0.01078051  0.41184171  0.67188850     0.25700
C2845       C  0.03298006  0.42076726  0.68887822    -0.12000
C2846       C  0.05392830  0.43603249  0.67028883    -0.26000
C2847       C  0.05214063  0.44339987  0.63515824     0.36600
C2848       C  0.03007289  0.43467246  0.61838949    -0.27600
F2849       F  0.99110960  0.39554471  0.68961695    -0.19800
H2850       H  0.03388188  0.41453670  0.71561887     0.15900
F2851       F  0.07192043  0.45851660  0.61641929    -0.23500
H2852       H  0.02936416  0.44023404  0.59108465     0.17700
C2853       C  0.07667367  0.34278989  0.74764894    -0.27500
C2854       C  0.08099892  0.34235472  0.78488787     0.06100
C2855       C  0.09588672  0.36397682  0.80232570     0.25700
C2856       C  0.10492275  0.38543126  0.78355229    -0.12000
C2857       C  0.09971639  0.38603874  0.74674987    -0.26000
C2858       C  0.08604150  0.36435947  0.72865170     0.36500
C2859       C  0.07000421  0.31935270  0.80504681     0.06100
F2860       F  0.10197542  0.36444897  0.83746902    -0.19700
H2861       H  0.11587565  0.40176981  0.79816049     0.15900
F2862       F  0.08081293  0.36399461  0.69314908    -0.23500
H2863       H  0.06543960  0.32639293  0.73338844     0.17700
C2864       C  0.05858556  0.31659940  0.83867857     0.25700
C2865       C  0.04702170  0.29433780  0.85577837    -0.12000
C2866       C  0.04615793  0.27433219  0.83942239    -0.26000
C2867       C  0.05823890  0.27729995  0.80647297     0.36600
C2868       C  0.07003879  0.29951357  0.78972617    -0.27600
F2869       F  0.05720143  0.33496983  0.85395728    -0.19800
H2870       H  0.03750705  0.29246169  0.88072781     0.15900
F2871       F  0.05816486  0.25852920  0.78984874    -0.23500
H2872       H  0.07891990  0.30111453  0.76423807     0.17700
C2873       C  0.23247219  0.44136411  0.86474803    -0.27500
C2874       C  0.23003448  0.46173550  0.86165015     0.06100
C2875       C  0.24743877  0.48311234  0.87710719     0.25700
C2876       C  0.26737033  0.48427875  0.89377227    -0.12000
C2877       C  0.27041208  0.46417233  0.89557717    -0.26000
C2878       C  0.25237153  0.44247194  0.88163016     0.36500
C2879       C  0.21089467  0.46133937  0.83900023     0.06100
F2880       F  0.24590665  0.50324960  0.87423951    -0.19700
H2881       H  0.28076499  0.50119096  0.90452252     0.15900
F2882       F  0.25429262  0.42251248  0.88302675    -0.23500
H2883       H  0.21919408  0.42467410  0.85320888     0.17700
C2884       C  0.20847915  0.45384741  0.80290174     0.25700
C2885       C  0.19268596  0.45623662  0.78004536    -0.12000
C2886       C  0.17868343  0.46584594  0.79262294    -0.26000
C2887       C  0.18009927  0.47222445  0.82916070     0.36600
C2888       C  0.19628915  0.47018564  0.85207782    -0.27600
F2889       F  0.22239319  0.44547706  0.78908294    -0.19800
H2890       H  0.19177847  0.45101136  0.75205133     0.15900
F2891       F  0.16689070  0.48162589  0.84215226    -0.23500
H2892       H  0.19780564  0.47597386  0.87984419     0.17700
C2893       C  0.26890754  0.48660502  0.57853008    -0.27500
C2894       C  0.25661182  0.46520907  0.59767308     0.06100
C2895       C  0.26450492  0.44847949  0.59553583     0.25700
C2896       C  0.28404876  0.45297119  0.57364904    -0.12000
C2897       C  0.29555650  0.47395309  0.55315483    -0.26000
C2898       C  0.28803711  0.49090633  0.55634913     0.36500
C2899       C  0.23502754  0.46058829  0.61810722     0.06100
F2900       F  0.25314048  0.42776298  0.61413557    -0.19700
H2901       H  0.28938440  0.43956847  0.57123887     0.15900
F2902       F  0.29884795  0.51145305  0.53721601    -0.23500
H2903       H  0.26308638  0.49969346  0.57973484     0.17700
C2904       C  0.23636270  0.47700386  0.64413049     0.25700
C2905       C  0.21569113  0.47573465  0.65788192    -0.12000
C2906       C  0.19324731  0.45796926  0.64629038    -0.26000
C2907       C  0.19176990  0.44051614  0.62207658     0.36600
C2908       C  0.21259611  0.44190920  0.60799567    -0.27600
F2909       F  0.25774161  0.49487022  0.65516429    -0.19800
H2910       H  0.21722714  0.48912280  0.67699362     0.15900
F2911       F  0.17035787  0.42328546  0.60999714    -0.23500
H2912       H  0.21120680  0.42924757  0.58764466     0.17700
C2913       C  0.14042588  0.52702307  0.55265062    -0.27500
C2914       C  0.12803806  0.53855476  0.56492814     0.06100
C2915       C  0.11636180  0.53180932  0.59849223     0.25700
C2916       C  0.11818338  0.51503506  0.61986123    -0.12000
C2917       C  0.13162214  0.50457461  0.60851731    -0.26000
C2918       C  0.14231414  0.51021497  0.57433046     0.36500
C2919       C  0.12882061  0.55880750  0.54445012     0.06100
F2920       F  0.10466575  0.54269220  0.61205364    -0.19700
H2921       H  0.10999193  0.51102607  0.64632826     0.15900
F2922       F  0.15600837  0.50091878  0.56313084    -0.23500
H2923       H  0.14932134  0.53161665  0.52675948     0.17700
C2924       C  0.15046575  0.57731401  0.53123355     0.25700
C2925       C  0.15145345  0.59738666  0.51526546    -0.12000
C2926       C  0.13101837  0.59972926  0.51240469    -0.26000
C2927       C  0.10926258  0.58100158  0.52496314     0.36600
C2928       C  0.10822327  0.56075266  0.54045063    -0.27600
F2929       F  0.17097213  0.57666092  0.53538543    -0.19800
H2930       H  0.17041263  0.61098950  0.00454108     0.15900
F2931       F  0.08904788  0.58241973  0.52325496    -0.23500
H2932       H  0.09126484  0.54669006  0.54992550     0.17700
C2933       C  0.12073477  0.54869115  0.80142327    -0.27500
C2934       C  0.14167538  0.57064753  0.79799070     0.06100
C2935       C  0.16021302  0.57205965  0.77650324     0.25700
C2936       C  0.15793296  0.55178804  0.75920360    -0.12000
C2937       C  0.13716758  0.52964337  0.76306370    -0.26000
C2938       C  0.11845553  0.52832417  0.78422023     0.36500
C2939       C  0.14481595  0.59150674  0.81914756     0.06100
F2940       F  0.18058629  0.59306339  0.77239528    -0.19700
H2941       H  0.17258765  0.55338639  0.74302228     0.15900
F2942       F  0.09843081  0.50721523  0.78968929    -0.23500
H2943       H  0.10644252  0.54718377  0.81842506     0.17700
C2944       C  0.12959745  0.60107409  0.81467170     0.25700
C2945       C  0.13177880  0.61963322  0.83701044    -0.12000
C2946       C  0.14885603  0.62853988  0.86457257    -0.26000
C2947       C  0.16463882  0.61944023  0.86800588     0.36600
C2948       C  0.16265815  0.60125915  0.84538563    -0.27600
F2949       F  0.11240033  0.59217207  0.78909342    -0.19800
H2950       H  0.11933794  0.62615223  0.83400727     0.15900
F2951       F  0.18161958  0.62763406  0.89401252    -0.23500
H2952       H  0.17455438  0.59413431  0.84926307     0.17700
loop_ 
_geom_bond_atom_site_label_1 
_geom_bond_atom_site_label_2 
_geom_bond_distance 
_geom_bond_site_symmetry_2 
_ccdc_geom_bond_type 
O1          Cr19   1.940       .  S
O1            C9   1.262       .  A
O2          Cr19   1.993       .  S
O2            C3   1.256       .  A
C3            O4   1.255       .  A
C3         C1461   1.485       .  S
O4          Cr20   1.997       .  S
O5          Cr20   2.038       .  S
O5            C6   1.272       .  A
C6            O7   1.253       .  A
C6         C1370   1.489       .  S
O7          Cr21   1.946       .  S
O8          Cr21   2.055       .  S
O8            C9   1.283       .  A
C9         C1441   1.477       .  S
O10         Cr19   1.992       .  S
O10          C18   1.255       .  A
O11         Cr19   1.947       .  S
O11          C12   1.262       .  A
C12          O13   1.284       .  A
C12        C1410   1.475       .  S
O13         Cr20   2.060       .  S
O14         Cr20   1.951       .  S
O14          C15   1.256       .  A
C15          O16   1.273       .  A
C15        C1381   1.492       .  S
O16         Cr21   2.039       .  S
O17         Cr21   1.984       .  S
O17          C18   1.252       .  A
C18        C1430   1.476       .  S
Cr19         O22   1.770       .  S
Cr20         O22   1.773       .  S
Cr21         O22   1.775       .  S
O23         Cr41   1.971       .  S
O23          C31   1.263       .  A
O24         Cr41   2.000       .  S
O24          C25   1.260       .  A
C25          O26   1.260       .  A
C25        C1341   1.493       .  S
O26         Cr42   1.997       .  S
O27         Cr42   2.046       .  S
O27          C28   1.275       .  A
C28          O29   1.256       .  A
C28        C1261   1.489       .  S
O29         Cr43   1.957   1_655  S
O30         Cr43   2.047   1_655  S
O30          C31   1.277       .  A
C31        C1321   1.487       .  S
O32         Cr41   2.003   1_455  S
O32          C40   1.263       .  A
O33         Cr41   1.959   1_455  S
O33          C34   1.262       .  A
C34          O35   1.279       .  A
C34        C1281   1.495       .  S
O35         Cr42   2.047   1_455  S
O36         Cr42   1.951   1_455  S
O36          C37   1.252       .  A
C37          O38   1.272       .  A
C37        C1390   1.486       .  S
O38         Cr43   2.041       .  S
O39         Cr43   1.988       .  S
O39          C40   1.258       .  A
C40        C1310   1.484       .  S
Cr41         O44   1.769       .  S
Cr42         O44   1.771       .  S
Cr43         O44   1.775   1_455  S
O45         Cr63   1.948       .  S
O45        C1529   1.261   1_554  A
O46         Cr63   1.986       .  S
O46          C47   1.258       .  A
C47          O48   1.260       .  A
C47        C1201   1.482       .  S
O48         Cr64   1.995       .  S
O49         Cr64   2.041       .  S
O49          C50   1.273       .  A
C50          O51   1.254   1_554  A
C50        C1270   1.488   1_554  S
O51       Cr1541   1.952       .  S
O52         Cr65   2.045       .  S
O52          C53   1.279       .  A
C53        O1521   1.260       .  A
C53        C1190   1.480       .  S
O54         Cr63   1.991   1_556  S
O54        C1538   1.258       .  A
O55         Cr63   1.948       .  S
O55          C56   1.261       .  A
C56          O57   1.278       .  A
C56        C1230   1.484       .  S
O57         Cr64   2.045       .  S
O58         Cr64   1.948       .  S
O58          C59   1.254       .  A
C59          O60   1.273       .  A
C59        C1361   1.483       .  S
O60       Cr1541   2.039   1_554  S
O61         Cr65   1.981       .  S
O61          C62   1.255       .  A
C62        O1530   1.259       .  A
C62        C1241   1.481       .  S
Cr63         O66   1.765       .  S
Cr64         O66   1.767       .  S
Cr65       O1527   1.950       .  S
Cr65       O1536   2.037       .  S
Cr65       O1542   1.765       .  S
O66       Cr1541   1.766   1_554  S
O67         Cr85   1.993       .  S
O67          C75   1.257       .  A
O68         Cr85   1.943       .  S
O68          C69   1.259       .  A
C69          O70   1.276       .  A
C69        C1250   1.477       .  S
O70         Cr86   2.042       .  S
O71         Cr86   1.942       .  S
O71          C72   1.253       .  A
C72          O73   1.275       .  A
C72        C1161   1.490       .  S
O73         Cr87   2.046       .  S
O74         Cr87   1.989       .  S
O74          C75   1.255       .  A
C75        C1221   1.482       .  S
O76         Cr85   1.942       .  S
O76          C84   1.260       .  A
O77         Cr85   1.994       .  S
O77          C78   1.260       .  A
C78          O79   1.257       .  A
C78        C1150   1.478       .  S
O79         Cr86   1.985       .  S
O80         Cr86   2.031       .  S
O80          C81   1.270       .  A
C81          O82   1.254       .  A
C81        C1101   1.488       .  S
O82         Cr87   1.959       .  S
O83         Cr87   2.052       .  S
O83          C84   1.282       .  A
C84        C1130   1.483       .  S
Cr85         O88   1.768       .  S
Cr86         O88   1.773       .  S
Cr87         O88   1.769       .  S
O89        Cr107   2.005       .  S
O89          C97   1.264       .  A
O90        Cr107   1.947       .  S
O90        C1567   1.258       .  A
C91          O92   1.275       .  A
C91        O1566   1.257   1_554  A
C91        C1070   1.469       .  S
O92        Cr108   2.038   1_554  S
O93       Cr1584   1.957       .  S
O93          C94   1.254       .  A
C94          O95   1.275       .  A
C94        C1041   1.497       .  S
O95        Cr109   2.054       .  S
O96        Cr109   1.983       .  S
O96          C97   1.259       .  A
C97        C1081   1.486       .  S
O98        Cr107   1.948       .  S
O98         C106   1.258       .  A
O99        Cr107   2.008       .  S
O99        C1576   1.264       .  A
C100        O101   1.258   1_554  A
C100       O1575   1.263   1_554  A
C100       C1450   1.484       .  S
O101       Cr108   1.981       .  S
O102      Cr1584   2.048       .  S
O102        C103   1.274       .  A
C103        O104   1.253       .  A
C103       C1170   1.484       .  S
O104       Cr109   1.952       .  S
O105       Cr109   2.049       .  S
O105        C106   1.278       .  A
C106       C1470   1.484       .  S
Cr107       O110   1.767       .  S
Cr108      O1569   1.948   1_556  S
Cr108      O1578   2.033       .  S
Cr108      O1586   1.770       .  S
Cr109       O110   1.769       .  S
O110      Cr1584   1.768       .  S
O111       Cr129   1.992   1_455  S
O111        C119   1.257       .  A
O112       Cr129   1.959   1_455  S
O112        C113   1.261       .  A
C113        O114   1.277       .  A
C113       C1010   1.479       .  S
O114       Cr130   2.046   1_455  S
O115       Cr130   1.962   1_455  S
O115        C116   1.256       .  A
C116        O117   1.276       .  A
C116       C1050   1.496       .  S
O117       Cr131   2.049       .  S
O118       Cr131   1.989       .  S
O118        C119   1.257       .  A
C119       C1030   1.483       .  S
O120       Cr129   1.947       .  S
O120        C128   1.261       .  A
O121       Cr129   2.001       .  S
O121        C122   1.261       .  A
C122        O123   1.258       .  A
C122        C990   1.488       .  S
O123       Cr130   1.990       .  S
O124       Cr130   2.037       .  S
O124        C125   1.272       .  A
C125        O126   1.254       .  A
C125       C1110   1.490       .  S
O126       Cr131   1.954   1_655  S
O127       Cr131   2.058   1_655  S
O127        C128   1.282       .  A
C128        C961   1.491       .  S
Cr129       O132   1.770       .  S
Cr130       O132   1.769       .  S
Cr131       O132   1.769   1_455  S
O133       Cr151   1.950       .  S
O133        C141   1.261       .  A
O134       Cr151   1.997       .  S
O134        C135   1.258       .  A
C135        O136   1.255       .  A
C135       C1061   1.483       .  S
O136       Cr152   1.984       .  S
O137       Cr152   2.040       .  S
O137        C138   1.273       .  A
C138        O139   1.255       .  A
C138        C921   1.492       .  S
O139       Cr153   1.955       .  S
O140       Cr153   2.039       .  S
O140        C141   1.277       .  A
C141       C1090   1.472       .  S
O142       Cr151   2.000       .  S
O142        C150   1.261       .  A
O143       Cr151   1.943       .  S
O143        C144   1.262       .  A
C144        O145   1.280       .  A
C144        C881   1.484       .  S
O145       Cr152   2.043       .  S
O146       Cr152   1.950       .  S
O146        C147   1.254       .  A
C147        O148   1.272       .  A
C147        C941   1.484       .  S
O148       Cr153   2.033       .  S
O149       Cr153   1.996       .  S
O149        C150   1.259       .  A
C150        C910   1.488       .  S
Cr151       O154   1.769       .  S
Cr152       O154   1.769       .  S
Cr153       O154   1.770       .  S
O155       Cr173   1.940       .  S
O155        C163   1.260       .  A
O156       Cr173   1.997       .  S
O156        C157   1.257       .  A
C157        O158   1.258       .  A
C157       C1001   1.490       .  S
O158       Cr174   1.997       .  S
O159       Cr174   2.044       .  S
O159        C160   1.275       .  A
C160        O161   1.256       .  A
C160        C930   1.492       .  S
O161       Cr175   1.958   1_565  S
O162       Cr175   2.044   1_565  S
O162        C163   1.279       .  A
C163       C1021   1.473       .  S
O164       Cr173   1.993   1_545  S
O164        C172   1.257       .  A
O165       Cr173   1.939   1_545  S
O165        C166   1.260       .  A
C166        O167   1.282       .  A
C166        C841   1.483       .  S
O167       Cr174   2.050   1_545  S
O168       Cr174   1.959   1_545  S
O168        C169   1.255       .  A
C169        O170   1.270       .  A
C169        C821   1.487       .  S
O170       Cr175   2.030       .  S
O171       Cr175   2.000       .  S
O171        C172   1.258       .  A
C172        C861   1.488       .  S
Cr173       O176   1.771       .  S
Cr174       O176   1.770       .  S
Cr175       O176   1.774   1_545  S
O177       Cr195   1.948       .  S
O177        C185   1.263       .  A
O178       Cr195   1.990   1_556  S
O178       C1655   1.257       .  A
C179        O180   1.256       .  A
C179       O1654   1.255       .  A
C179        C761   1.489       .  S
O180       Cr196   2.003       .  S
O181      Cr1672   2.033   1_554  S
O181        C182   1.270       .  A
C182        O183   1.254       .  A
C182        C950   1.485       .  S
O183       Cr197   1.956       .  S
O184       Cr197   2.066       .  S
O184        C185   1.287       .  A
C185        C750   1.490       .  S
O186       Cr195   1.990       .  S
O186        C194   1.254       .  A
O187      Cr1671   1.946       .  S
O187        C188   1.262       .  A
C188        O189   1.282       .  A
C188        C781   1.475       .  S
O189       Cr196   2.049       .  S
O190      Cr1672   1.940       .  S
O190        C191   1.253   1_556  A
C191        O192   1.277       .  A
C191        C830   1.492   1_554  S
O192       Cr197   2.049       .  S
O193       Cr197   1.997       .  S
O193        C194   1.255       .  A
C194        C801   1.488       .  S
Cr195      O1663   1.955       .  S
Cr195       O198   1.769       .  S
Cr196      O1657   2.030       .  S
Cr196      O1666   1.957       .  S
Cr196      O1674   1.776       .  S
Cr197       O198   1.768       .  S
O198      Cr1672   1.775   1_554  S
O199       Cr217   1.984       .  S
O199        C207   1.253       .  A
O200       Cr217   1.953       .  S
O200        C201   1.263       .  A
C201        O202   1.281       .  A
C201       C1350   1.485       .  S
O202       Cr218   2.053   1_545  S
O203       Cr218   1.942   1_545  S
O203        C204   1.253       .  A
C204        O205   1.273       .  A
C204        C710   1.485       .  S
O205       Cr219   2.038       .  S
O206       Cr219   1.999       .  S
O206        C207   1.255       .  A
C207       C1330   1.484       .  S
O208       Cr217   1.949   1_565  S
O208        C216   1.265       .  A
O209       Cr217   1.986   1_565  S
O209        C210   1.256       .  A
C210        O211   1.257       .  A
C210        C690   1.483       .  S
O211       Cr218   1.997       .  S
O212       Cr218   2.032       .  S
O212        C213   1.271       .  A
C213        O214   1.255       .  A
C213        C730   1.485       .  S
O214       Cr219   1.957   1_565  S
O215       Cr219   2.055   1_565  S
O215        C216   1.284       .  A
C216        C661   1.487       .  S
Cr217       O220   1.768       .  S
Cr218       O220   1.772   1_565  S
Cr219       O220   1.771       .  S
O221       Cr239   1.993       .  S
O221       C1705   1.257       .  A
O222       Cr239   1.943       .  S
O222        C223   1.262       .  A
C223        O224   1.283       .  A
C223        C901   1.481       .  S
O224       Cr240   2.057       .  S
O225       Cr240   1.961       .  S
O225        C226   1.256       .  A
C226        O227   1.272       .  A
C226        C601   1.494       .  S
O227      Cr1717   2.038       .  S
O228       Cr241   1.995       .  S
O228        C229   1.258       .  A
C229       O1697   1.258       .  A
C229        C890   1.485   1_556  S
O230      Cr1715   1.949       .  S
O230        C238   1.261   1_556  A
O231       Cr239   1.991       .  S
O231        C232   1.255       .  A
C232        O233   1.254       .  A
C232        C641   1.487       .  S
O233       Cr240   1.994       .  S
O234       Cr240   2.038       .  S
O234        C235   1.273       .  A
C235        O236   1.254       .  A
C235        C721   1.498       .  S
O236      Cr1717   1.947       .  S
O237       Cr241   2.042   1_554  S
O237        C238   1.278       .  A
C238        C630   1.478       .  S
Cr239      O1706   1.946       .  S
Cr239       O242   1.773       .  S
Cr240       O242   1.775       .  S
Cr241      O1703   2.040       .  S
Cr241      O1712   1.956   1_556  S
Cr241      O1718   1.773       .  S
O242      Cr1717   1.775       .  S
O243       Cr261   2.000       .  S
O243        C251   1.261       .  A
O244       Cr261   1.941       .  S
O244        C245   1.258       .  A
C245        O246   1.277       .  A
C245       C1210   1.485       .  S
O246       Cr262   2.044       .  S
O247       Cr262   1.959       .  S
O247        C248   1.255       .  A
C248        O249   1.271       .  A
C248        C701   1.485       .  S
O249       Cr263   2.034       .  S
O250       Cr263   1.988       .  S
O250        C251   1.258       .  A
C251       C1181   1.485       .  S
O252       Cr261   1.944       .  S
O252        C260   1.260       .  A
O253       Cr261   2.001       .  S
O253        C254   1.262       .  A
C254        O255   1.261       .  A
C254        C741   1.491       .  S
O255       Cr262   1.996       .  S
O256       Cr262   2.047       .  S
O256        C257   1.274       .  A
C257        O258   1.255       .  A
C257        C610   1.492       .  S
O258       Cr263   1.953       .  S
O259       Cr263   2.038       .  S
O259        C260   1.276       .  A
C260        C770   1.479       .  S
Cr261       O264   1.765       .  S
Cr262       O264   1.772       .  S
Cr263       O264   1.771       .  S
O265       Cr283   2.005       .  S
O265        C273   1.264       .  A
O266       Cr283   1.955       .  S
O266        C267   1.261       .  A
C267        O268   1.279       .  A
C267        C521   1.493       .  S
O268       Cr284   2.049       .  S
O269       Cr284   1.947       .  S
O269        C270   1.253       .  A
C270        O271   1.273       .  A
C270        C581   1.489       .  S
O271       Cr285   2.043       .  S
O272       Cr285   1.984       .  S
O272        C273   1.258       .  A
C273        C541   1.486       .  S
O274       Cr283   1.960       .  S
O274        C282   1.261       .  A
O275       Cr283   2.004       .  S
O275        C276   1.262       .  A
C276        O277   1.257       .  A
C276        C790   1.486       .  S
O277       Cr284   1.981       .  S
O278       Cr284   2.045       .  S
O278        C279   1.274       .  A
C279        O280   1.255       .  A
C279        C561   1.488       .  S
O280       Cr285   1.953       .  S
O281       Cr285   2.044       .  S
O281        C282   1.277       .  A
C282        C810   1.483       .  S
Cr283       O286   1.766       .  S
Cr284       O286   1.766       .  S
Cr285       O286   1.769       .  S
O287       Cr305   1.995       .  S
O287        C295   1.257       .  A
O288       Cr305   1.947       .  S
O288        C289   1.266       .  A
C289        O290   1.284       .  A
C289        C870   1.486       .  S
O290       Cr306   2.053       .  S
O291       Cr306   1.961       .  S
O291        C292   1.255       .  A
C292        O293   1.269       .  A
C292        C570   1.490       .  S
O293       Cr307   2.024       .  S
O294       Cr307   2.003       .  S
O294        C295   1.257       .  A
C295        C850   1.490       .  S
O296       Cr305   1.953       .  S
O296        C304   1.263       .  A
O297       Cr305   1.987       .  S
O297        C298   1.254       .  A
C298        O299   1.256       .  A
C298       C1290   1.490       .  S
O299       Cr306   2.005       .  S
O300       Cr306   2.041       .  S
O300        C301   1.275       .  A
C301        O302   1.257       .  A
C301        C501   1.496       .  S
O302       Cr307   1.956       .  S
O303       Cr307   2.043       .  S
O303        C304   1.279       .  A
C304       C1301   1.471       .  S
Cr305       O308   1.770       .  S
Cr306       O308   1.775       .  S
Cr307       O308   1.779       .  S
O309       Cr327   1.998       .  S
O309       C1793   1.261       .  A
O310       Cr327   1.954       .  S
O310        C311   1.259       .  A
C311        O312   1.275       .  A
C311        C461   1.477       .  S
O312       Cr328   2.037       .  S
O313       Cr328   1.951       .  S
O313        C314   1.253       .  A
C314        O315   1.273       .  A
C314        C590   1.482       .  S
O315      Cr1805   2.042       .  S
O316       Cr329   2.003       .  S
O316        C317   1.259       .  A
C317       O1785   1.259       .  A
C317        C481   1.491   1_556  S
O318      Cr1803   1.941       .  S
O318        C326   1.260   1_556  A
O319       Cr327   2.011       .  S
O319        C320   1.264       .  A
C320        O321   1.260       .  A
C320       C1401   1.492       .  S
O321       Cr328   1.988       .  S
O322       Cr328   2.038       .  S
O322        C323   1.272       .  A
C323        O324   1.254       .  A
C323        C510   1.482       .  S
O324      Cr1805   1.956       .  S
O325       Cr329   2.045   1_554  S
O325        C326   1.279       .  A
C326       C1421   1.477       .  S
Cr327      O1794   1.956       .  S
Cr327       O330   1.768       .  S
Cr328       O330   1.770       .  S
Cr329      O1791   2.037       .  S
Cr329      O1800   1.959   1_556  S
Cr329      O1806   1.773       .  S
O330      Cr1805   1.769       .  S
O331       Cr349   1.948       .  S
O331        C339   1.261       .  A
O332       Cr349   2.002       .  S
O332        C333   1.263       .  A
C333        O334   1.259       .  A
C333        C470   1.485       .  S
O334       Cr350   1.985       .  S
O335       Cr350   2.037       .  S
O335        C336   1.272       .  A
C336        O337   1.256       .  A
C336        C441   1.487       .  S
O337       Cr351   1.960       .  S
O338       Cr351   2.050       .  S
O338        C339   1.279       .  A
C339        C490   1.487       .  S
O340       Cr349   1.987       .  S
O340        C348   1.259       .  A
O341       Cr349   1.956       .  S
O341        C342   1.259       .  A
C342        O343   1.274       .  A
C342        C650   1.473       .  S
O343       Cr350   2.037       .  S
O344       Cr350   1.953       .  S
O344        C345   1.253       .  A
C345        O346   1.273       .  A
C345        C421   1.479       .  S
O346       Cr351   2.044       .  S
O347       Cr351   2.002       .  S
O347        C348   1.261       .  A
C348        C621   1.486       .  S
Cr349       O352   1.762       .  S
Cr350       O352   1.769       .  S
Cr351       O352   1.769       .  S
O353       Cr371   1.946       .  S
O353        C361   1.261       .  A
O354       Cr371   1.989       .  S
O354       C1831   1.256       .  A
C355        O356   1.261       .  A
C355       O1830   1.261       .  A
C355        C530   1.490       .  S
O356       Cr372   1.996       .  S
O357      Cr1848   2.037       .  S
O357        C358   1.272       .  A
C358        O359   1.254       .  A
C358        C450   1.491       .  S
O359       Cr373   1.951       .  S
O360       Cr373   2.050       .  S
O360        C361   1.280       .  A
C361        C550   1.482       .  S
O362       Cr371   1.998       .  S
O362        C370   1.259       .  A
O363      Cr1847   1.948       .  S
O363        C364   1.260       .  A
C364        O365   1.275       .  A
C364       C1141   1.472       .  S
O365       Cr372   2.030       .  S
O366      Cr1848   1.959   1_556  S
O366        C367   1.257   1_556  A
C367        O368   1.273       .  A
C367        C410   1.493       .  S
O368       Cr373   2.036       .  S
O369       Cr373   1.993       .  S
O369        C370   1.256       .  A
C370       C1121   1.488       .  S
Cr371      O1839   1.952       .  S
Cr371       O374   1.771       .  S
Cr372      O1833   2.035       .  S
Cr372      O1842   1.955       .  S
Cr372      O1850   1.770       .  S
Cr373       O374   1.774       .  S
O374      Cr1848   1.774       .  S
O375       Cr393   1.935       .  S
O375        C383   1.259       .  A
O376       Cr393   2.002       .  S
O376        C377   1.261       .  A
C377        O378   1.259       .  A
C377        C670   1.488       .  S
O378       Cr394   1.998       .  S
O379       Cr394   2.025       .  S
O379        C380   1.268       .  A
C380        O381   1.256       .  A
C380        C430   1.476       .  S
O381       Cr395   1.967       .  S
O382       Cr395   2.053       .  S
O382        C383   1.281       .  A
C383        C681   1.485       .  S
O384       Cr393   1.997       .  S
O384        C392   1.259       .  A
O385       Cr393   1.943       .  S
O385        C386   1.258       .  A
C386        O387   1.276       .  A
C386        C981   1.471       .  S
O387       Cr394   2.040       .  S
O388       Cr394   1.954       .  S
O388        C389   1.256       .  A
C389        O390   1.275       .  A
C389        C401   1.484       .  S
O390       Cr395   2.045       .  S
O391       Cr395   1.997       .  S
O391        C392   1.259       .  A
C392        C970   1.490       .  S
Cr393       O396   1.766       .  S
Cr394       O396   1.775       .  S
Cr395       O396   1.771       .  S
C397        C398   1.415       .  A
C397        C402   1.412       .  A
C397        H407   1.083       .  S
C398        C403   1.504       .  S
C398        C399   1.409       .  A
C399        C400   1.396       .  A
C399        F404   1.357       .  S
C400        C401   1.403       .  A
C400        H405   1.085       .  S
C401        C402   1.405       .  A
C402        F406   1.357       .  S
C403        C408   1.407       .  A
C403        C412   1.414       .  A
C408        C409   1.400       .  A
C408        F413   1.357       .  S
C409       C1886   1.412       .  A
C409        H414   1.084       .  S
C410        C411   1.406       .  A
C410       C1885   1.411   1_554  A
C411       C1888   1.406       .  A
C411        F415   1.357       .  S
C412       C1887   1.407       .  A
C412        H416   1.083       .  S
C417        C418   1.401       .  A
C417        C422   1.399       .  A
C417        H427   1.084       .  S
C418        C423   1.485       .  S
C418        C419   1.409       .  A
C419        C420   1.405       .  A
C419        F424   1.357       .  S
C420        C421   1.404       .  A
C420        H425   1.084       .  S
C421        C422   1.409       .  A
C422        F426   1.357       .  S
C423        C428   1.406       .  A
C423        C432   1.406       .  A
C428        C429   1.401       .  A
C428        F433   1.357       .  S
C429        C430   1.404       .  A
C429        H434   1.084       .  S
C430        C431   1.406       .  A
C431        C432   1.403       .  A
C431        F435   1.358       .  S
C432        H436   1.083       .  S
C437        C438   1.402       .  A
C437        C442   1.398       .  A
C437        H447   1.083       .  S
C438        C443   1.492       .  S
C438        C439   1.413       .  A
C439        C440   1.406       .  A
C439        F444   1.357       .  S
C440        C441   1.405       .  A
C440        H445   1.083       .  S
C441        C442   1.411       .  A
C442        F446   1.358       .  S
C443        C448   1.403       .  A
C443        C452   1.411       .  A
C448        C449   1.398       .  A
C448        F453   1.358       .  S
C449        C450   1.411       .  A
C449        H454   1.084       .  S
C450        C451   1.407       .  A
C451        C452   1.407       .  A
C451        F455   1.357       .  S
C452        H456   1.083       .  S
C457        C458   1.409       .  A
C457        C462   1.404       .  A
C457        H467   1.083       .  S
C458        C463   1.486       .  S
C458        C459   1.406       .  A
C459        C460   1.394       .  A
C459        F464   1.358       .  S
C460        C461   1.405       .  A
C460        H465   1.084       .  S
C461        C462   1.404       .  A
C462        F466   1.357       .  S
C463        C468   1.408       .  A
C463        C472   1.403       .  A
C468        C469   1.401       .  A
C468        F473   1.357       .  S
C469        C470   1.406       .  A
C469        H474   1.082       .  S
C470        C471   1.411       .  A
C471        C472   1.398       .  A
C471        F475   1.358       .  S
C472        H476   1.083       .  S
C477        C478   1.406       .  A
C477        C482   1.407       .  A
C477        H487   1.083       .  S
C478        C483   1.488       .  S
C478        C479   1.405       .  A
C479        C480   1.395       .  A
C479        F484   1.358       .  S
C480        C481   1.408       .  A
C480        H485   1.083       .  S
C481        C482   1.410       .  A
C482        F486   1.357       .  S
C483        C488   1.404       .  A
C483        C492   1.409       .  A
C488        C489   1.390       .  A
C488        F493   1.358       .  S
C489        C490   1.406       .  A
C489        H494   1.083       .  S
C490        C491   1.410       .  A
C491        C492   1.410       .  A
C491        F495   1.357       .  S
C492        H496   1.083       .  S
C497        C498   1.414       .  A
C497        C502   1.410       .  A
C497        H507   1.082       .  S
C498        C503   1.505       .  S
C498        C499   1.407       .  A
C499        C500   1.400       .  A
C499        F504   1.358   1_554  S
C500        C501   1.411       .  A
C500        H505   1.084       .  S
C501        C502   1.406       .  A
C502        F506   1.357       .  S
C503        C508   1.408       .  A
C503        C512   1.414   1_554  A
C508       C1985   1.402       .  A
C508        F513   1.357       .  S
C509        C510   1.407       .  A
C509       C1984   1.399       .  A
C509        H514   1.083       .  S
C510       C1987   1.405       .  A
C511        C512   1.409       .  A
C511       C1986   1.406       .  A
C511       F1991   1.357       .  S
C512        H516   1.082       .  S
F515       C1987   1.358       .  S
C517        C518   1.408       .  A
C517        C522   1.410       .  A
C517        H527   1.083       .  S
C518        C523   1.487       .  S
C518        C519   1.402       .  A
C519        C520   1.395       .  A
C519        F524   1.358       .  S
C520        C521   1.410       .  A
C520        H525   1.083       .  S
C521        C522   1.410       .  A
C522        F526   1.357       .  S
C523        C528   1.408       .  A
C523        C532   1.402       .  A
C528        C529   1.404       .  A
C528        F533   1.357       .  S
C529        C530   1.406       .  A
C529       H2010   1.083       .  S
C530        C531   1.412       .  A
C531        C532   1.401       .  A
C531        F535   1.358       .  S
C532        H536   1.083       .  S
H534       C2005   1.083       .  S
C537        C538   1.406       .  A
C537        C542   1.401       .  A
C537        H547   1.083       .  S
C538        C543   1.485       .  S
C538        C539   1.405       .  A
C539        C540   1.398       .  A
C539        F544   1.357       .  S
C540        C541   1.407       .  A
C540        H545   1.082       .  S
C541        C542   1.409       .  A
C542        F546   1.358       .  S
C543        C548   1.403       .  A
C543        C552   1.410       .  A
C548        C549   1.392       .  A
C548        F553   1.358       .  S
C549        C550   1.406       .  A
C549        H554   1.084       .  S
C550        C551   1.406       .  A
C551        C552   1.408       .  A
C551        F555   1.357       .  S
C552        H556   1.083       .  S
C557        C558   1.412       .  A
C557        C562   1.407       .  A
C557        H567   1.082       .  S
C558        C563   1.496       .  S
C558        C559   1.405       .  A
C559        C560   1.398       .  A
C559        F564   1.357       .  S
C560        C561   1.409       .  A
C560        H565   1.084       .  S
C561        C562   1.406       .  A
C562        F566   1.357       .  S
C563        C568   1.405       .  A
C563        C572   1.411       .  A
C568        C569   1.400       .  A
C568        F573   1.357       .  S
C569        C570   1.410       .  A
C569        H574   1.082       .  S
C570        C571   1.406       .  A
C571        C572   1.405       .  A
C571        F575   1.357       .  S
C572        H576   1.082       .  S
C577        C578   1.397       .  A
C577        C582   1.395       .  A
C577        H587   1.083       .  S
C578        C583   1.483       .  S
C578        C579   1.409       .  A
C579        C580   1.408       .  A
C579        F584   1.357       .  S
C580        C581   1.406       .  A
C580        H585   1.083       .  S
C581        C582   1.414       .  A
C582        F586   1.358       .  S
C583        C588   1.409       .  A
C583        C592   1.400       .  A
C588        C589   1.404       .  A
C588        F593   1.357       .  S
C589        C590   1.403       .  A
C589        H594   1.083       .  S
C590        C591   1.412       .  A
C591        C592   1.400       .  A
C591        F595   1.358       .  S
C592        H596   1.083       .  S
C597        C598   1.411       .  A
C597        C602   1.408       .  A
C597        H607   1.083   1_565  S
C598        C603   1.496   1_565  S
C598        C599   1.404       .  A
C599        C600   1.401       .  A
C599        F604   1.357       .  S
C600        C601   1.411       .  A
C600        H605   1.083       .  S
C601        C602   1.407       .  A
C602        F606   1.357       .  S
C603        C608   1.404       .  A
C603        C612   1.412       .  A
C608        C609   1.399       .  A
C608        F613   1.357       .  S
C609        C610   1.410       .  A
C609        H614   1.084       .  S
C610        C611   1.407       .  A
C611        C612   1.410       .  A
C611        F615   1.357       .  S
C612        H616   1.083       .  S
C617        C618   1.407       .  A
C617        C622   1.407       .  A
C617        H627   1.082       .  S
C618        C623   1.483       .  S
C618        C619   1.403       .  A
C619        C620   1.393       .  A
C619        F624   1.358       .  S
C620        C621   1.407       .  A
C620        H625   1.082       .  S
C621        C622   1.409       .  A
C622        F626   1.357       .  S
C623        C628   1.407       .  A
C623        C632   1.402       .  A
C628        C629   1.406       .  A
C628        F633   1.357       .  S
C629        C630   1.406       .  A
C629        H634   1.084       .  S
C630        C631   1.407       .  A
C631        C632   1.392       .  A
C631       F2111   1.358       .  S
C632        H636   1.084       .  S
F635       C2107   1.358       .  S
C637        C638   1.402       .  A
C637        C642   1.395       .  A
C637        H647   1.083       .  S
C638        C643   1.487       .  S
C638        C639   1.409       .  A
C639        C640   1.403       .  A
C639        F644   1.358       .  S
C640        C641   1.407       .  A
C640        H645   1.083       .  S
C641        C642   1.411       .  A
C642        F646   1.357       .  S
C643        C648   1.412       .  A
C643        C652   1.403       .  A
C648        C649   1.404       .  A
C648        F653   1.357       .  S
C649        C650   1.402       .  A
C649        H654   1.083       .  S
C650        C651   1.406       .  A
C651        C652   1.394       .  A
C651        F655   1.358       .  S
C652        H656   1.083       .  S
C657       C2134   1.410       .  A
C657       C2138   1.408       .  A
C657        H667   1.083       .  S
C658       C2139   1.489       .  S
C658        C659   1.404   1_556  A
C658       C2133   1.409       .  A
C659        C660   1.393       .  A
C659        F664   1.358       .  S
C660        C661   1.406       .  A
C660        H665   1.083       .  S
C661        C662   1.410       .  A
C662       C2133   1.410   1_554  A
C662       F2142   1.357       .  S
C663       C2134   1.496       .  S
C663        C668   1.411       .  A
C663        C672   1.405       .  A
F666       C2138   1.358       .  S
C668        C669   1.407       .  A
C668        F673   1.357       .  S
C669        C670   1.406       .  A
C669        H674   1.082       .  S
C670        C671   1.409       .  A
C671        C672   1.398       .  A
C671        F675   1.358       .  S
C672       H2152   1.083       .  S
H676       C2148   1.083       .  S
C677        C678   1.408       .  A
C677        C682   1.407       .  A
C677        H687   1.082       .  S
C678        C683   1.482       .  S
C678        C679   1.403       .  A
C679        C680   1.388       .  A
C679        F684   1.359       .  S
C680        C681   1.409       .  A
C680        H685   1.083       .  S
C681        C682   1.408       .  A
C682        F686   1.356       .  S
C683        C688   1.404       .  A
C683        C692   1.406       .  A
C688        C689   1.391       .  A
C688        F693   1.358       .  S
C689        C690   1.407       .  A
C689        H694   1.083       .  S
C690        C691   1.409       .  A
C691        C692   1.404       .  A
C691        F695   1.357       .  S
C692        H696   1.083       .  S
C697        C698   1.409       .  A
C697        C702   1.405       .  A
C697        H707   1.084       .  S
C698        C703   1.488       .  S
C698        C699   1.403       .  A
C699        C700   1.398       .  A
C699        F704   1.358       .  S
C700        C701   1.409       .  A
C700        H705   1.084       .  S
C701        C702   1.407       .  A
C702        F706   1.357       .  S
C703        C708   1.402       .  A
C703        C712   1.410       .  A
C708        C709   1.396       .  A
C708        F713   1.358       .  S
C709        C710   1.411       .  A
C709        H714   1.085       .  S
C710        C711   1.404       .  A
C711        C712   1.406       .  A
C711        F715   1.357       .  S
C712        H716   1.084       .  S
C717        C718   1.409   1_556  A
C717        C722   1.405       .  A
C717        H727   1.083       .  S
C718        C723   1.491       .  S
C718        C719   1.404       .  A
C719       C2196   1.399       .  A
C719        F724   1.358       .  S
C720        C721   1.406       .  A
C720       C2195   1.409       .  A
C720        H725   1.082       .  S
C721       C2198   1.418       .  A
C722       C2197   1.406       .  A
C722        F726   1.357       .  S
C723        C728   1.404       .  A
C723        C732   1.409       .  A
C728        C729   1.400       .  A
C728        F733   1.358       .  S
C729        C730   1.408       .  A
C729        H734   1.082       .  S
C730        C731   1.405       .  A
C731        C732   1.405       .  A
C731        F735   1.357       .  S
C732        H736   1.083       .  S
C737        C738   1.403       .  A
C737        C742   1.399       .  A
C737        H747   1.083       .  S
C738        C743   1.491       .  S
C738        C739   1.409       .  A
C739        C740   1.407       .  A
C739        F744   1.357       .  S
C740        C741   1.408       .  A
C740        H745   1.082       .  S
C741        C742   1.411       .  A
C742        F746   1.358       .  S
C743        C748   1.410       .  A
C743        C752   1.402       .  A
C748        C749   1.411       .  A
C748        F753   1.357       .  S
C749        C750   1.407       .  A
C749        H754   1.081       .  S
C750        C751   1.411       .  A
C751        C752   1.396       .  A
C751        F755   1.358       .  S
C752        H756   1.083       .  S
C757        C758   1.401       .  A
C757        C762   1.394       .  A
C757        H767   1.083       .  S
C758        C763   1.483       .  S
C758        C759   1.407       .  A
C759        C760   1.407       .  A
C759        F764   1.357       .  S
C760        C761   1.409       .  A
C760       H2241   1.083       .  S
C761        C762   1.411       .  A
C762        F766   1.358       .  S
C763        C768   1.404       .  A
C763        C772   1.408       .  A
H765       C2236   1.083       .  S
C768        C769   1.389       .  A
C768        F773   1.358       .  S
C769        C770   1.404       .  A
C769        H774   1.084       .  S
C770        C771   1.409       .  A
C771        C772   1.408       .  A
C771        F775   1.357       .  S
C772        H776   1.083       .  S
C777        C778   1.401       .  A
C777        C782   1.394       .  A
C777        H787   1.083       .  S
C778        C783   1.481       .  S
C778        C779   1.409       .  A
C779        C780   1.404       .  A
C779        F784   1.357       .  S
C780        C781   1.403       .  A
C780        H785   1.082       .  S
C781        C782   1.409       .  A
C782        F786   1.359       .  S
C783        C788   1.406       .  A
C783        C792   1.402       .  A
C788        C789   1.400       .  A
C788        F793   1.358       .  S
C789        C790   1.408       .  A
C789        H794   1.083       .  S
C790        C791   1.411       .  A
C791        C792   1.397       .  A
C791        F795   1.357       .  S
C792        H796   1.083       .  S
C797        C798   1.402       .  A
C797        C802   1.399       .  A
C797        H807   1.083       .  S
C798        C803   1.489       .  S
C798        C799   1.410       .  A
C799        C800   1.403       .  A
C799        F804   1.357       .  S
C800        C801   1.406       .  A
C800        H805   1.083       .  S
C801        C802   1.412       .  A
C802        F806   1.358       .  S
C803        C808   1.405       .  A
C803        C812   1.410       .  A
C808        C809   1.395       .  A
C808        F813   1.358       .  S
C809        C810   1.405       .  A
C809        H814   1.084       .  S
C810        C811   1.407       .  A
C811        C812   1.408       .  A
C811        F815   1.357       .  S
C812        H816   1.083       .  S
C817        C818   1.403       .  A
C817        C822   1.400       .  A
C817        H827   1.083       .  S
C818        C823   1.494       .  S
C818        C819   1.413       .  A
C819        C820   1.405       .  A
C819        F824   1.357       .  S
C820        C821   1.403       .  A
C820        H825   1.083       .  S
C821        C822   1.412       .  A
C822        F826   1.358       .  S
C823        C828   1.405       .  A
C823        C832   1.411       .  A
C828        C829   1.400       .  A
C828        F833   1.358       .  S
C829       C2306   1.410       .  A
C829        H834   1.083       .  S
C830        C831   1.402   1_556  A
C830       C2305   1.413       .  A
C831       C2308   1.406   1_554  A
C831        F835   1.356       .  S
C832       C2307   1.407       .  A
C832        H836   1.082       .  S
C837        C838   1.397       .  A
C837        C842   1.391       .  A
C837        H847   1.085       .  S
C838       C2319   1.474       .  S
C838        C839   1.405       .  A
C839        C840   1.405       .  A
C839       F2320   1.357       .  S
C840        C841   1.407       .  A
C840        H845   1.083       .  S
C841        C842   1.414       .  A
C842        F846   1.358       .  S
C843       C2314   1.486       .  S
C843        C848   1.408       .  A
C843        C852   1.402       .  A
F844       C2315   1.357       .  S
C848        C849   1.407       .  A
C848       F2329   1.357       .  S
C849        C850   1.408       .  A
C849        H854   1.082       .  S
C850        C851   1.411       .  A
C851        C852   1.396       .  A
C851        F855   1.358       .  S
C852        H856   1.083       .  S
F853       C2324   1.357       .  S
C857        C858   1.402       .  A
C857        C862   1.396       .  A
C857        H867   1.083       .  S
C858        C863   1.486       .  S
C858        C859   1.407       .  A
C859        C860   1.405       .  A
C859        F864   1.357       .  S
C860        C861   1.408       .  A
C860        H865   1.082       .  S
C861        C862   1.411       .  A
C862        F866   1.358       .  S
C863        C868   1.404       .  A
C863        C872   1.408       .  A
C868        C869   1.392       .  A
C868        F873   1.358       .  S
C869        C870   1.407       .  A
C869        H874   1.083       .  S
C870        C871   1.409       .  A
C871        C872   1.409       .  A
C871        F875   1.357       .  S
C872        H876   1.082       .  S
C877        C878   1.404       .  A
C877        C882   1.406       .  A
C877        H887   1.083       .  S
C878        C883   1.471       .  S
C878        C879   1.398       .  A
C879        C880   1.389       .  A
C879        F884   1.358       .  S
C880        C881   1.409       .  A
C880        H885   1.083       .  S
C881        C882   1.410       .  A
C882        F886   1.357       .  S
C883        C888   1.399       .  A
C883        C892   1.403       .  A
C888        C889   1.393       .  A
C888        F893   1.358       .  S
C889        C890   1.408       .  A
C889       H2370   1.083       .  S
C890        C891   1.410       .  A
C891        C892   1.403       .  A
C891        F895   1.357       .  S
C892        H896   1.083       .  S
H894       C2365   1.083       .  S
C897        C898   1.404       .  A
C897        C902   1.394       .  A
C897        H907   1.084       .  S
C898        C903   1.492       .  S
C898        C899   1.411       .  A
C899        C900   1.409       .  A
C899        F904   1.357       .  S
C900        C901   1.405       .  A
C900        H905   1.083       .  S
C901        C902   1.407       .  A
C902        F906   1.358       .  S
C903        C908   1.407       .  A
C903        C912   1.408       .  A
C908        C909   1.397       .  A
C908        F913   1.358       .  S
C909        C910   1.406       .  A
C909        H914   1.083       .  S
C910        C911   1.409       .  A
C911        C912   1.407       .  A
C911        F915   1.357       .  S
C912        H916   1.083       .  S
C917        C918   1.402       .  A
C917        C922   1.398       .  A
C917        H927   1.083       .  S
C918        C923   1.498       .  S
C918        C919   1.415       .  A
C919        C920   1.409       .  A
C919        F924   1.357       .  S
C920        C921   1.405       .  A
C920        H925   1.083       .  S
C921        C922   1.413       .  A
C922        F926   1.358       .  S
C923        C928   1.405       .  A
C923        C932   1.412       .  A
C928        C929   1.401       .  A
C928        F933   1.357       .  S
C929        C930   1.410       .  A
C929        H934   1.084       .  S
C930        C931   1.406       .  A
C931        C932   1.409       .  A
C931        F935   1.357       .  S
C932        H936   1.083       .  S
C937        C938   1.407       .  A
C937        C942   1.404       .  A
C937        H947   1.087       .  S
C938        C943   1.486   1_565  S
C938        C939   1.403       .  A
C939        C940   1.397       .  A
C939        F944   1.357       .  S
C940        C941   1.409       .  A
C940        H945   1.087       .  S
C941        C942   1.406       .  A
C942        F946   1.357       .  S
C943        C948   1.410       .  A
C943        C952   1.400       .  A
C948        C949   1.406       .  A
C948        F953   1.357   1_545  S
C949        C950   1.404       .  A
C949        H954   1.083       .  S
C950        C951   1.411       .  A
C951        C952   1.399       .  A
C951        F955   1.357       .  S
C952        H956   1.084       .  S
C957        C958   1.399       .  A
C957        C962   1.391       .  A
C957        H967   1.084       .  S
C958        C963   1.491       .  S
C958        C959   1.413       .  A
C959        C960   1.413       .  A
C959        F964   1.357       .  S
C960        C961   1.408       .  A
C960        H965   1.083       .  S
C961        C962   1.412       .  A
C962        F966   1.358       .  S
C963        C968   1.405       .  A
C963        C972   1.409       .  A
C968        C969   1.401       .  A
C968        F973   1.357       .  S
C969        C970   1.409       .  A
C969        H974   1.083       .  S
C970        C971   1.408       .  A
C971        C972   1.403       .  A
C971        F975   1.357       .  S
C972        H976   1.083       .  S
C977        C978   1.402       .  A
C977        C982   1.391       .  A
C977       H2463   1.083       .  S
C978       C2459   1.481       .  S
C978        C979   1.409       .  A
C979        C980   1.403       .  A
C979        F984   1.357       .  S
C980        C981   1.402       .  A
C980        H985   1.083       .  S
C981        C982   1.408       .  A
C982        F986   1.359       .  S
C983       C2454   1.487       .  S
C983        C988   1.409       .  A
C983        C992   1.403       .  A
H987       C2453   1.083       .  S
C988        C989   1.402       .  A
C988        F993   1.358       .  S
C989        C990   1.407       .  A
C989        H994   1.083       .  S
C990        C991   1.411       .  A
C991        C992   1.397       .  A
C991        F995   1.357       .  S
C992       H2472   1.083       .  S
H996       C2468   1.083       .  S
C997        C998   1.407       .  A
C997       C1002   1.401       .  A
C997       H2483   1.083       .  S
C998       C2479   1.488       .  S
C998        C999   1.406       .  A
C999       C1000   1.402       .  A
C999       F1004   1.358       .  S
C1000      C1001   1.410       .  A
C1000      H1005   1.083       .  S
C1001      C1002   1.407       .  A
C1002      F1006   1.357       .  S
C1003      C2474   1.490       .  S
C1003      C1008   1.412       .  A
C1003      C1012   1.402   1_556  A
H1007      C2473   1.083       .  S
C1008      C1009   1.407       .  A
C1008      F1013   1.357       .  S
C1009      C1010   1.403   1_556  A
C1009      H1014   1.083       .  S
C1010      C1011   1.407       .  A
C1011      C1012   1.398       .  A
C1011      F1015   1.358       .  S
C1012      H2492   1.083       .  S
H1016      C2488   1.083       .  S
C1017      C1018   1.399       .  A
C1017      C1022   1.389       .  A
C1017      H1027   1.083       .  S
C1018      C1023   1.476       .  S
C1018      C1019   1.408       .  A
C1019      C1020   1.405       .  A
C1019      F1024   1.357       .  S
C1020      C1021   1.404       .  A
C1020      H1025   1.083       .  S
C1021      C1022   1.408       .  A
C1022      F1026   1.359       .  S
C1023      C1028   1.405       .  A
C1023      C1032   1.400       .  A
C1028      C1029   1.398       .  A
C1028      F1033   1.357       .  S
C1029      C1030   1.406       .  A
C1029      H1034   1.083       .  S
C1030      C1031   1.412       .  A
C1031      C1032   1.396       .  A
C1031      F1035   1.358       .  S
C1032      H1036   1.083       .  S
C1037      C1038   1.415   1_556  A
C1037      C1042   1.414       .  A
C1037      H1047   1.082       .  S
C1038      C1043   1.507       .  S
C1038      C1039   1.406       .  A
C1039      C2516   1.399       .  A
C1039      F1044   1.357       .  S
C1040      C1041   1.411       .  A
C1040      C2515   1.401       .  A
C1040      H1045   1.083       .  S
C1041      C2518   1.407       .  A
C1042      C2517   1.408       .  A
C1042      F2522   1.357       .  S
C1043      C1048   1.408       .  A
C1043      C1052   1.414       .  A
F1046      C2518   1.357       .  S
C1048      C1049   1.404       .  A
C1048      F1053   1.357       .  S
C1049      C1050   1.411       .  A
C1049      H1054   1.084       .  S
C1050      C1051   1.406       .  A
C1051      C1052   1.409       .  A
C1051      F1055   1.357       .  S
C1052      H1056   1.082       .  S
C1057      C1058   1.401       .  A
C1057      C1062   1.396       .  A
C1057      H1067   1.083       .  S
C1058      C1063   1.477       .  S
C1058      C1059   1.405       .  A
C1059      C1060   1.398       .  A
C1059      F1064   1.357       .  S
C1060      C1061   1.407       .  A
C1060      H1065   1.083       .  S
C1061      C1062   1.411       .  A
C1062      F1066   1.358       .  S
C1063      C1068   1.403       .  A
C1063      C1072   1.408       .  A
C1068      C1069   1.390       .  A
C1068      F1073   1.358       .  S
C1069      C1070   1.404       .  A
C1069      H2550   1.084       .  S
C1070      C1071   1.403       .  A
C1071      C1072   1.403       .  A
C1071      F1075   1.357       .  S
C1072      H1076   1.083       .  S
H1074      C2545   1.083       .  S
C1077      C1078   1.407       .  A
C1077      C1082   1.401       .  A
C1077      H1087   1.082       .  S
C1078      C1083   1.487       .  S
C1078      C1079   1.407       .  A
C1079      C1080   1.397       .  A
C1079      F1084   1.358       .  S
C1080      C1081   1.406       .  A
C1080      H1085   1.083       .  S
C1081      C1082   1.409       .  A
C1082      F1086   1.357       .  S
C1083      C1088   1.407       .  A
C1083      C1092   1.410       .  A
C1088      C1089   1.393       .  A
C1088      F1093   1.358       .  S
C1089      C1090   1.403       .  A
C1089      H1094   1.084       .  S
C1090      C1091   1.402       .  A
C1091      C1092   1.404       .  A
C1091      F1095   1.357       .  S
C1092      H1096   1.082       .  S
C1097      C1098   1.403       .  A
C1097      C1102   1.400       .  A
C1097      H1107   1.083       .  S
C1098      C1103   1.495       .  S
C1098      C1099   1.413       .  A
C1099      C1100   1.405       .  A
C1099      F1104   1.357       .  S
C1100      C1101   1.404       .  A
C1100      H1105   1.083       .  S
C1101      C1102   1.412       .  A
C1102      F1106   1.358       .  S
C1103      C1108   1.413       .  A
C1103      C1112   1.402       .  A
C1108      C1109   1.406       .  A
C1108      F1113   1.357       .  S
C1109      C1110   1.404       .  A
C1109      H1114   1.083       .  S
C1110      C1111   1.413       .  A
C1111      C1112   1.398       .  A
C1111      F1115   1.358       .  S
C1112      H1116   1.083       .  S
C1117      C1118   1.406       .  A
C1117      C1122   1.405       .  A
C1117      H1127   1.082       .  S
C1118      C1123   1.487       .  S
C1118      C1119   1.405       .  A
C1119      C1120   1.396       .  A
C1119      F1124   1.358       .  S
C1120      C1121   1.407       .  A
C1120      H1125   1.082       .  S
C1121      C1122   1.410       .  A
C1122      F1126   1.357       .  S
C1123      C1128   1.409       .  A
C1123      C1132   1.401       .  A
C1128      C1129   1.407       .  A
C1128      F1133   1.357       .  S
C1129      C1130   1.406       .  A
C1129      H1134   1.084       .  S
C1130      C1131   1.411       .  A
C1131      C1132   1.393       .  A
C1131      F1135   1.358       .  S
C1132      H1136   1.083       .  S
C1137      C1138   1.402       .  A
C1137      C1142   1.391       .  A
C1137      H1147   1.084       .  S
C1138      C1143   1.479       .  S
C1138      C1139   1.407       .  A
C1139      C1140   1.403       .  A
C1139      F1144   1.357       .  S
C1140      C1141   1.405       .  A
C1140      H1145   1.084       .  S
C1141      C1142   1.406       .  A
C1142      F1146   1.358       .  S
C1143      C1148   1.407       .  A
C1143      C1152   1.402       .  A
C1148      C1149   1.400       .  A
C1148      F1153   1.357       .  S
C1149      C1150   1.405       .  A
C1149      H1154   1.082       .  S
C1150      C1151   1.409       .  A
C1151      C1152   1.394       .  A
C1151      F1155   1.358       .  S
C1152      H1156   1.083       .  S
C1157      C1158   1.398       .  A
C1157      C1162   1.396       .  A
C1157      H1167   1.083       .  S
C1158      C1163   1.487   1_655  S
C1158      C1159   1.411       .  A
C1159      C1160   1.408       .  A
C1159      F1164   1.357   1_655  S
C1160      C1161   1.405       .  A
C1160      H1165   1.083       .  S
C1161      C1162   1.416       .  A
C1162      F1166   1.359       .  S
C1163      C1168   1.410       .  A
C1163      C1172   1.400       .  A
C1168      C1169   1.406       .  A
C1168      F1173   1.357   1_455  S
C1169      C1170   1.404       .  A
C1169      H1174   1.083       .  S
C1170      C1171   1.412       .  A
C1171      C1172   1.400       .  A
C1171      F1175   1.358       .  S
C1172      H1176   1.083       .  S
C1177      C1178   1.406       .  A
C1177      C1182   1.400       .  A
C1177      H1187   1.083       .  S
C1178      C1183   1.483       .  S
C1178      C1179   1.404       .  A
C1179      C1180   1.398       .  A
C1179      F1184   1.358       .  S
C1180      C1181   1.408       .  A
C1180      H1185   1.083       .  S
C1181      C1182   1.408       .  A
C1182      F1186   1.357       .  S
C1183      C1188   1.403       .  A
C1183      C1192   1.409       .  A
C1188      C1189   1.391       .  A
C1188      F1193   1.358       .  S
C1189      C1190   1.407       .  A
C1189      H2670   1.084       .  S
C1190      C1191   1.406       .  A
C1191      C1192   1.406       .  A
C1191      F1195   1.357       .  S
C1192      H1196   1.083       .  S
H1194      C2665   1.083       .  S
C1197      C1198   1.398       .  A
C1197      C1202   1.393       .  A
C1197      H1207   1.083       .  S
C1198      C1203   1.471       .  S
C1198      C1199   1.404       .  A
C1199      C1200   1.402       .  A
C1199      F1204   1.357       .  S
C1200      C1201   1.406       .  A
C1200      H1205   1.082       .  S
C1201      C1202   1.413       .  A
C1202      F1206   1.358       .  S
C1203      C1208   1.398       .  A
C1203      C1212   1.404       .  A
C1208      C1209   1.388       .  A
C1208      F1213   1.359       .  S
C1209      C1210   1.410       .  A
C1209      H1214   1.083       .  S
C1210      C1211   1.410       .  A
C1211      C1212   1.406       .  A
C1211      F1215   1.357       .  S
C1212      H1216   1.082       .  S
C1217      C1218   1.406       .  A
C1217      C1222   1.400       .  A
C1217      H1227   1.083       .  S
C1218      C1223   1.481       .  S
C1218      C1219   1.403       .  A
C1219      C1220   1.398       .  A
C1219      F1224   1.357       .  S
C1220      C1221   1.407       .  A
C1220      H1225   1.083       .  S
C1221      C1222   1.408       .  A
C1222      F1226   1.357       .  S
C1223      C1228   1.402       .  A
C1223      C1232   1.408       .  A
C1228      C1229   1.390       .  A
C1228      F1233   1.358       .  S
C1229      C1230   1.407       .  A
C1229      H1234   1.083       .  S
C1230      C1231   1.409       .  A
C1231      C1232   1.407       .  A
C1231      F1235   1.357       .  S
C1232      H1236   1.083       .  S
C1237      C1238   1.401       .  A
C1237      C1242   1.397       .  A
C1237      H1247   1.083       .  S
C1238      C1243   1.477       .  S
C1238      C1239   1.406       .  A
C1239      C1240   1.397       .  A
C1239      F1244   1.358       .  S
C1240      C1241   1.406       .  A
C1240      H2721   1.083       .  S
C1241      C1242   1.410       .  A
C1242      F1246   1.357       .  S
C1243      C1248   1.402       .  A
C1243      C1252   1.407       .  A
H1245      C2716   1.083       .  S
C1248      C1249   1.388       .  A
C1248      F1253   1.358       .  S
C1249      C1250   1.406       .  A
C1249      H1254   1.084       .  S
C1250      C1251   1.407       .  A
C1251      C1252   1.405       .  A
C1251      F1255   1.357       .  S
C1252      H1256   1.083       .  S
C1257      C1258   1.402       .  A
C1257      C1262   1.400       .  A
C1257      H1267   1.083       .  S
C1258      C1263   1.494       .  S
C1258      C1259   1.413       .  A
C1259      C1260   1.407       .  A
C1259      F1264   1.358       .  S
C1260      C1261   1.405       .  A
C1260      H1265   1.083       .  S
C1261      C1262   1.412       .  A
C1262      F1266   1.358       .  S
C1263      C1268   1.403       .  A
C1263      C1272   1.411       .  A
C1268      C2745   1.397       .  A
C1268      F1273   1.358       .  S
C1269      C1270   1.410       .  A
C1269      C2744   1.399       .  A
C1269      H1274   1.083       .  S
C1270      C2747   1.408   1_556  A
C1271      C1272   1.408       .  A
C1271      C2746   1.407       .  A
C1271      F1275   1.357       .  S
C1272      H1276   1.083       .  S
C1277      C1278   1.406       .  A
C1277      C1282   1.410       .  A
C1277      H1287   1.082       .  S
C1278      C1283   1.486       .  S
C1278      C1279   1.402       .  A
C1279      C1280   1.397       .  A
C1279      F1284   1.358       .  S
C1280      C1281   1.410       .  A
C1280      H1285   1.083       .  S
C1281      C1282   1.412       .  A
C1282      F1286   1.357       .  S
C1283      C1288   1.402       .  A
C1283      C1292   1.407       .  A
C1288      C1289   1.398       .  A
C1288      F1293   1.357       .  S
C1289      C1290   1.408       .  A
C1289      H1294   1.083       .  S
C1290      C1291   1.410       .  A
C1291      C1292   1.408       .  A
C1291      F1295   1.357       .  S
C1292      H1296   1.083       .  S
C1297      C1298   1.408       .  A
C1297      C1302   1.403       .  A
C1297      H1307   1.082       .  S
C1298      C2779   1.481       .  S
C1298      C1299   1.405   1_556  A
C1299      C1300   1.395       .  A
C1299      F2780   1.358       .  S
C1300      C1301   1.404       .  A
C1300      H1305   1.083       .  S
C1301      C1302   1.403   1_554  A
C1302      F1306   1.357       .  S
C1303      C2774   1.481       .  S
C1303      C1308   1.406       .  A
C1303      C1312   1.403       .  A
F1304      C2775   1.358       .  S
C1308      C1309   1.402       .  A
C1308      F2789   1.357       .  S
C1309      C1310   1.406       .  A
C1309      H1314   1.082       .  S
C1310      C1311   1.409       .  A
C1311      C1312   1.399       .  A
C1311      F1315   1.358       .  S
C1312      H1316   1.083       .  S
F1313      C2784   1.357       .  S
C1317      C1318   1.409       .  A
C1317      C1322   1.409       .  A
C1317      H2803   1.083       .  S
C1318      C2799   1.491       .  S
C1318      C1319   1.406       .  A
C1319      C1320   1.399       .  A
C1319      F1324   1.358       .  S
C1320      C1321   1.406       .  A
C1320      H1325   1.083       .  S
C1321      C1322   1.408       .  A
C1322      F1326   1.357       .  S
C1323      C2794   1.483       .  S
C1323      C1328   1.404       .  A
C1323      C1332   1.407       .  A
H1327      C2793   1.083       .  S
C1328      C1329   1.396       .  A
C1328      F2809   1.358       .  S
C1329      C1330   1.408       .  A
C1329      H1334   1.082       .  S
C1330      C1331   1.407       .  A
C1331      C1332   1.402       .  A
C1331      F1335   1.357       .  S
C1332      H1336   1.082       .  S
F1333      C2804   1.357       .  S
C1337      C1338   1.402       .  A
C1337      C1342   1.399       .  A
C1337      H1347   1.083       .  S
C1338      C1343   1.491       .  S
C1338      C1339   1.410       .  A
C1339      C1340   1.405       .  A
C1339      F1344   1.358       .  S
C1340      C1341   1.408       .  A
C1340      H1345   1.082       .  S
C1341      C1342   1.413       .  A
C1342      F1346   1.357       .  S
C1343      C1348   1.404       .  A
C1343      C1352   1.411       .  A
C1348      C1349   1.394       .  A
C1348      F1353   1.357       .  S
C1349      C1350   1.406       .  A
C1349      H1354   1.083       .  S
C1350      C1351   1.407       .  A
C1351      C1352   1.409       .  A
C1351      F1355   1.357       .  S
C1352      H1356   1.082       .  S
C1357      C1358   1.411       .  A
C1357      C1362   1.406       .  A
C1357      H1367   1.083   1_655  S
C1358      C1363   1.490   1_655  S
C1358      C1359   1.403       .  A
C1359      C1360   1.396       .  A
C1359      F1364   1.357       .  S
C1360      C1361   1.409       .  A
C1360      H1365   1.084       .  S
C1361      C1362   1.405       .  A
C1362      F1366   1.357       .  S
C1363      C1368   1.413       .  A
C1363      C1372   1.400       .  A
C1368      C1369   1.407       .  A
C1368      F1373   1.357   1_455  S
C1369      C1370   1.404       .  A
C1369      H1374   1.083       .  S
C1370      C1371   1.414       .  A
C1371      C1372   1.397       .  A
C1371      F1375   1.358       .  S
C1372      H1376   1.083       .  S
C1377      C1378   1.413       .  A
C1377      C1382   1.410       .  A
C1377      H1387   1.083       .  S
C1378      C1383   1.496       .  S
C1378      C1379   1.403       .  A
C1379      C1380   1.396       .  A
C1379      F1384   1.357       .  S
C1380      C1381   1.410       .  A
C1380      H1385   1.084       .  S
C1381      C1382   1.407       .  A
C1382      F1386   1.357       .  S
C1383      C1388   1.415       .  A
C1383      C1392   1.402       .  A
C1388      C1389   1.406       .  A
C1388      F1393   1.357       .  S
C1389      C1390   1.402       .  A
C1389      H1394   1.084       .  S
C1390      C1391   1.412       .  A
C1391      C1392   1.399       .  A
C1391      F1395   1.358       .  S
C1392      H1396   1.084       .  S
C1397      C1398   1.407       .  A
C1397      C1402   1.402       .  A
C1397      H1407   1.083       .  S
C1398      C1403   1.495       .  S
C1398      C1399   1.408       .  A
C1399      C1400   1.402       .  A
C1399      F1404   1.357       .  S
C1400      C1401   1.409       .  A
C1400      H1405   1.083       .  S
C1401      C1402   1.409       .  A
C1402      F1406   1.357       .  S
C1403      C1408   1.408       .  A
C1403      C1412   1.411       .  A
C1408      C1409   1.396       .  A
C1408      F1413   1.357       .  S
C1409      C1410   1.403       .  A
C1409      H1414   1.084       .  S
C1410      C1411   1.404       .  A
C1411      C1412   1.407       .  A
C1411      F1415   1.357       .  S
C1412      H1416   1.083       .  S
C1417      C1418   1.397       .  A
C1417      C1422   1.389       .  A
C1417      H1427   1.084       .  S
C1418      C1423   1.473       .  S
C1418      C1419   1.406       .  A
C1419      C1420   1.406       .  A
C1419      F1424   1.357       .  S
C1420      C1421   1.407       .  A
C1420      H1425   1.083       .  S
C1421      C1422   1.409       .  A
C1422      F1426   1.358       .  S
C1423      C1428   1.402       .  A
C1423      C1432   1.404       .  A
C1428      C1429   1.395       .  A
C1428      F1433   1.358       .  S
C1429      C1430   1.404       .  A
C1429      H1434   1.084       .  S
C1430      C1431   1.408       .  A
C1431      C1432   1.402       .  A
C1431      F1435   1.358       .  S
C1432      H1436   1.083       .  S
C1437      C1438   1.408       .  A
C1437      C1442   1.407       .  A
C1437      H1447   1.083       .  S
C1438      C1443   1.481       .  S
C1438      C1439   1.403       .  A
C1439      C1440   1.390       .  A
C1439      F1444   1.358       .  S
C1440      C1441   1.405       .  A
C1440      H1445   1.084       .  S
C1441      C1442   1.406       .  A
C1442      F1446   1.357       .  S
C1443      C1448   1.404       .  A
C1443      C1452   1.404       .  A
C1448      C1449   1.400       .  A
C1448      F1453   1.358       .  S
C1449      C1450   1.409       .  A
C1449      H2930   1.083       .  S
C1450      C1451   1.408       .  A
C1451      C1452   1.397       .  A
C1451      F1455   1.357       .  S
C1452      H1456   1.083       .  S
H1454      C2925   1.083       .  S
C1457      C1458   1.407       .  A
C1457      C1462   1.406       .  A
C1457      H1467   1.083       .  S
C1458      C1463   1.486       .  S
C1458      C1459   1.404       .  A
C1459      C1460   1.395       .  A
C1459      F1464   1.358       .  S
C1460      C1461   1.406       .  A
C1460      H1465   1.083       .  S
C1461      C1462   1.409       .  A
C1462      F1466   1.357       .  S
C1463      C1468   1.408       .  A
C1463      C1472   1.401       .  A
C1468      C1469   1.408       .  A
C1468      F1473   1.357       .  S
C1469      C1470   1.407       .  A
C1469      H1474   1.083       .  S
C1470      C1471   1.410       .  A
C1471      C1472   1.393       .  A
C1471      F1475   1.358       .  S
C1472      H1476   1.084       .  S
O1477     Cr1495   1.951       .  S
O1477      C1485   1.264       .  A
O1478     Cr1495   1.996       .  S
O1478      C1479   1.255       .  A
C1479      O1480   1.255       .  A
C1479      C2937   1.486       .  S
O1480     Cr1496   1.992       .  S
O1481     Cr1496   2.033       .  S
O1481      C1482   1.272       .  A
C1482      O1483   1.255       .  A
C1482      C2846   1.486       .  S
O1483     Cr1497   1.952       .  S
O1484     Cr1497   2.053       .  S
O1484      C1485   1.283       .  A
C1485      C2917   1.474       .  S
O1486     Cr1495   1.989       .  S
O1486      C1494   1.255       .  A
O1487     Cr1495   1.950       .  S
O1487      C1488   1.265       .  A
C1488      O1489   1.283       .  A
C1488      C2886   1.480       .  S
O1489     Cr1496   2.050       .  S
O1490     Cr1496   1.951       .  S
O1490      C1491   1.254       .  A
C1491      O1492   1.271       .  A
C1491      C2857   1.491       .  S
O1492     Cr1497   2.032       .  S
O1493     Cr1497   1.997       .  S
O1493      C1494   1.254       .  A
C1494      C2906   1.478       .  S
Cr1495     O1498   1.771       .  S
Cr1496     O1498   1.773       .  S
Cr1497     O1498   1.777       .  S
O1499     Cr1517   1.949       .  S
O1499      C1507   1.260       .  A
O1500     Cr1517   2.001       .  S
O1500      C1501   1.260       .  A
C1501      O1502   1.260       .  A
C1501      C2817   1.490       .  S
O1502     Cr1518   1.993       .  S
O1503     Cr1518   2.044       .  S
O1503      C1504   1.274       .  A
C1504      O1505   1.255       .  A
C1504      C2737   1.485       .  S
O1505     Cr1519   1.954   1_655  S
O1506     Cr1519   2.040   1_655  S
O1506      C1507   1.276       .  A
C1507      C2797   1.475       .  S
O1508     Cr1517   2.007   1_455  S
O1508      C1516   1.262       .  A
O1509     Cr1517   1.945   1_455  S
O1509      C1510   1.261       .  A
C1510      O1511   1.279       .  A
C1510      C2757   1.488       .  S
O1511     Cr1518   2.046   1_455  S
O1512     Cr1518   1.956   1_455  S
O1512      C1513   1.255       .  A
C1513      O1514   1.271       .  A
C1513      C2866   1.485       .  S
O1514     Cr1519   2.034       .  S
O1515     Cr1519   1.986       .  S
O1515      C1516   1.258       .  A
C1516      C2786   1.486       .  S
Cr1517     O1520   1.767       .  S
Cr1518     O1520   1.767       .  S
Cr1519     O1520   1.768   1_455  S
O1521     Cr1539   1.943       .  S
O1522     Cr1539   1.993       .  S
O1522      C1523   1.260       .  A
C1523      O1524   1.259       .  A
C1523      C2677   1.486       .  S
O1524     Cr1540   1.995       .  S
O1525     Cr1540   2.040       .  S
O1525      C1526   1.273       .  A
C1526      O1527   1.254       .  A
C1526      C2746   1.493       .  S
O1528     Cr1541   2.047       .  S
O1528      C1529   1.279       .  A
C1529      C2666   1.485       .  S
O1530     Cr1539   1.997       .  S
O1531     Cr1539   1.945       .  S
O1531      C1532   1.261       .  A
C1532      O1533   1.278       .  A
C1532      C2706   1.479       .  S
O1533     Cr1540   2.043       .  S
O1534     Cr1540   1.952       .  S
O1534      C1535   1.255       .  A
C1535      O1536   1.273       .  A
C1535      C2837   1.485       .  S
O1537     Cr1541   1.985       .  S
O1537      C1538   1.256       .  A
C1538      C2717   1.478       .  S
Cr1539     O1542   1.767       .  S
Cr1540     O1542   1.768       .  S
O1543     Cr1561   1.994       .  S
O1543      C1551   1.259       .  A
O1544     Cr1561   1.933       .  S
O1544      C1545   1.257       .  A
C1545      O1546   1.277       .  A
C1545      C2726   1.479       .  S
O1546     Cr1562   2.043       .  S
O1547     Cr1562   1.955       .  S
O1547      C1548   1.254       .  A
C1548      O1549   1.272       .  A
C1548      C2637   1.492       .  S
O1549     Cr1563   2.036       .  S
O1550     Cr1563   1.985       .  S
O1550      C1551   1.256       .  A
C1551      C2697   1.478       .  S
O1552     Cr1561   1.945       .  S
O1552      C1560   1.260       .  A
O1553     Cr1561   1.995       .  S
O1553      C1554   1.260       .  A
C1554      O1555   1.260       .  A
C1554      C2626   1.487       .  S
O1555     Cr1562   1.996       .  S
O1556     Cr1562   2.041       .  S
O1556      C1557   1.274       .  A
C1557      O1558   1.254       .  A
C1557      C2577   1.484       .  S
O1558     Cr1563   1.952       .  S
O1559     Cr1563   2.041       .  S
O1559      C1560   1.278       .  A
C1560      C2606   1.472       .  S
Cr1561     O1564   1.769       .  S
Cr1562     O1564   1.772       .  S
Cr1563     O1564   1.768       .  S
O1565     Cr1583   1.999       .  S
O1565      C1573   1.260       .  A
O1566     Cr1583   1.943       .  S
C1567      O1568   1.277       .  A
C1567      C2546   1.488       .  S
O1568     Cr1584   2.045       .  S
O1569      C1570   1.255   1_554  A
C1570      O1571   1.279       .  A
C1570      C2517   1.502       .  S
O1571     Cr1585   2.062       .  S
O1572     Cr1585   1.996       .  S
O1572      C1573   1.258       .  A
C1573      C2557   1.491       .  S
O1574     Cr1583   1.939       .  S
O1574      C1582   1.258       .  A
O1575     Cr1583   2.006       .  S
C1576      O1577   1.259       .  A
C1576      C2926   1.490       .  S
O1577     Cr1584   1.984       .  S
O1578      C1579   1.270       .  A
C1579      O1580   1.255       .  A
C1579      C2646   1.490       .  S
O1580     Cr1585   1.963       .  S
O1581     Cr1585   2.059       .  S
O1581      C1582   1.283       .  A
C1582      C2946   1.485       .  S
Cr1583     O1586   1.771       .  S
Cr1585     O1586   1.766       .  S
O1587     Cr1605   1.985   1_455  S
O1587      C1595   1.253       .  A
O1588     Cr1605   1.949   1_455  S
O1588      C1589   1.264       .  A
C1589      O1590   1.283       .  A
C1589      C2486   1.486       .  S
O1590     Cr1606   2.054   1_455  S
O1591     Cr1606   1.955   1_455  S
O1591      C1592   1.255       .  A
C1592      O1593   1.274       .  A
C1592      C2526   1.498       .  S
O1593     Cr1607   2.044       .  S
O1594     Cr1607   1.994       .  S
O1594      C1595   1.257       .  A
C1595      C2506   1.481       .  S
O1596     Cr1605   1.945       .  S
O1596      C1604   1.263       .  A
O1597     Cr1605   1.992       .  S
O1597      C1598   1.254       .  A
C1598      O1599   1.253       .  A
C1598      C2466   1.481       .  S
O1599     Cr1606   1.986       .  S
O1600     Cr1606   2.033       .  S
O1600      C1601   1.272       .  A
C1601      O1602   1.255       .  A
C1601      C2586   1.488       .  S
O1602     Cr1607   1.952   1_655  S
O1603     Cr1607   2.057   1_655  S
O1603      C1604   1.284       .  A
C1604      C2437   1.484       .  S
Cr1605     O1608   1.774       .  S
Cr1606     O1608   1.769       .  S
Cr1607     O1608   1.770   1_455  S
O1609     Cr1627   1.949       .  S
O1609      C1617   1.262       .  A
O1610     Cr1627   2.001       .  S
O1610      C1611   1.259       .  A
C1611      O1612   1.256       .  A
C1611      C2537   1.484       .  S
O1612     Cr1628   1.988       .  S
O1613     Cr1628   2.046       .  S
O1613      C1614   1.275       .  A
C1614      O1615   1.255       .  A
C1614      C2397   1.493       .  S
O1615     Cr1629   1.953       .  S
O1616     Cr1629   2.050       .  S
O1616      C1617   1.280       .  A
C1617      C2566   1.480       .  S
O1618     Cr1627   1.997       .  S
O1618      C1626   1.260       .  A
O1619     Cr1627   1.948       .  S
O1619      C1620   1.262       .  A
C1620      O1621   1.281       .  A
C1620      C2357   1.487       .  S
O1621     Cr1628   2.049       .  S
O1622     Cr1628   1.951       .  S
O1622      C1623   1.253       .  A
C1623      O1624   1.272       .  A
C1623      C2417   1.488       .  S
O1624     Cr1629   2.037       .  S
O1625     Cr1629   1.997       .  S
O1625      C1626   1.257       .  A
C1626      C2386   1.486       .  S
Cr1627     O1630   1.771       .  S
Cr1628     O1630   1.770       .  S
Cr1629     O1630   1.773       .  S
O1631     Cr1649   1.949       .  S
O1631      C1639   1.259       .  A
O1632     Cr1649   2.000       .  S
O1632      C1633   1.261       .  A
C1633      O1634   1.262       .  A
C1633      C2477   1.496       .  S
O1634     Cr1650   2.006       .  S
O1635     Cr1650   2.046       .  S
O1635      C1636   1.276       .  A
C1636      O1637   1.258       .  A
C1636      C2406   1.491       .  S
O1637     Cr1651   1.966   1_565  S
O1638     Cr1651   2.030   1_565  S
O1638      C1639   1.271       .  A
C1639      C2497   1.463       .  S
O1640     Cr1649   2.000   1_545  S
O1640      C1648   1.262       .  A
O1641     Cr1649   1.942   1_545  S
O1641      C1642   1.259       .  A
C1642      O1643   1.279       .  A
C1642      C2317   1.487       .  S
O1643     Cr1650   2.050   1_545  S
O1644     Cr1650   1.965   1_545  S
O1644      C1645   1.257       .  A
C1645      O1646   1.268       .  A
C1645      C2297   1.489       .  S
O1646     Cr1651   2.026       .  S
O1647     Cr1651   1.990       .  S
O1647      C1648   1.259       .  A
C1648      C2337   1.484       .  S
Cr1649     O1652   1.767       .  S
Cr1650     O1652   1.769       .  S
Cr1651     O1652   1.775   1_545  S
O1653     Cr1671   1.942       .  S
O1653      C1661   1.264       .  A
O1654     Cr1671   1.992       .  S
C1655      O1656   1.256       .  A
C1655      C2237   1.477       .  S
O1656     Cr1672   1.990       .  S
O1657      C1658   1.270       .  A
C1658      O1659   1.255       .  A
C1658      C2426   1.488       .  S
O1659     Cr1673   1.957       .  S
O1660     Cr1673   2.056       .  S
O1660      C1661   1.285       .  A
C1661      C2226   1.482       .  S
O1662     Cr1671   1.990       .  S
O1662      C1670   1.253       .  A
O1663      C1664   1.261   1_554  A
C1664      O1665   1.280       .  A
C1664      C2257   1.474       .  S
O1665     Cr1672   2.049       .  S
O1666      C1667   1.257       .  A
C1667      O1668   1.273       .  A
C1667      C2306   1.489       .  S
O1668     Cr1673   2.035       .  S
O1669     Cr1673   2.006       .  S
O1669      C1670   1.256       .  A
C1670      C2277   1.493       .  S
Cr1671     O1674   1.767       .  S
Cr1673     O1674   1.771       .  S
O1675     Cr1693   1.996   1_545  S
O1675      C1683   1.255       .  A
O1676     Cr1693   1.946   1_545  S
O1676      C1677   1.264       .  A
C1677      O1678   1.282       .  A
C1677      C2826   1.477       .  S
O1678     Cr1694   2.053   1_545  S
O1679     Cr1694   1.966   1_545  S
O1679      C1680   1.257       .  A
C1680      O1681   1.267       .  A
C1680      C2186   1.481       .  S
O1681     Cr1695   2.012       .  S
O1682     Cr1695   2.003       .  S
O1682      C1683   1.254       .  A
C1683      C2806   1.494       .  S
O1684     Cr1693   1.957       .  S
O1684      C1692   1.266       .  A
O1685     Cr1693   1.986       .  S
O1685      C1686   1.254       .  A
C1686      O1687   1.256       .  A
C1686      C2166   1.487       .  S
O1687     Cr1694   2.003       .  S
O1688     Cr1694   2.034       .  S
O1688      C1689   1.273       .  A
C1689      O1690   1.257       .  A
C1689      C2206   1.496       .  S
O1690     Cr1695   1.954   1_565  S
O1691     Cr1695   2.044   1_565  S
O1691      C1692   1.282       .  A
C1692      C2137   1.479       .  S
Cr1693     O1696   1.776       .  S
Cr1694     O1696   1.780       .  S
Cr1695     O1696   1.772   1_545  S
O1697     Cr1715   1.990       .  S
O1698     Cr1715   1.947       .  S
O1698      C1699   1.260       .  A
C1699      O1700   1.278       .  A
C1699      C2377   1.478       .  S
O1700     Cr1716   2.043       .  S
O1701     Cr1716   1.957       .  S
O1701      C1702   1.255       .  A
C1702      O1703   1.272       .  A
C1702      C2077   1.491       .  S
O1704     Cr1717   1.994       .  S
O1704      C1705   1.257       .  A
C1705      C2366   1.485       .  S
O1706      C1714   1.262       .  A
O1707     Cr1715   1.993       .  S
O1707      C1708   1.258       .  A
C1708      O1709   1.258       .  A
C1708      C2117   1.485       .  S
O1709     Cr1716   1.994       .  S
O1710     Cr1716   2.034       .  S
O1710      C1711   1.272       .  A
C1711      O1712   1.255   1_556  A
C1711      C2197   1.488       .  S
O1713     Cr1717   2.052       .  S
O1713      C1714   1.281       .  A
C1714      C2106   1.480       .  S
Cr1715     O1718   1.768       .  S
Cr1716     O1718   1.771       .  S
O1719     Cr1737   2.005       .  S
O1719      C1727   1.263       .  A
O1720     Cr1737   1.929       .  S
O1720      C1721   1.256       .  A
C1721      O1722   1.279       .  A
C1721      C2686   1.489       .  S
O1722     Cr1738   2.058       .  S
O1723     Cr1738   1.955       .  S
O1723      C1724   1.254       .  A
C1724      O1725   1.269       .  A
C1724      C2177   1.482       .  S
O1725     Cr1739   2.028       .  S
O1726     Cr1739   1.984       .  S
O1726      C1727   1.258       .  A
C1727      C2657   1.484       .  S
O1728     Cr1737   1.941       .  S
O1728      C1736   1.258       .  A
O1729     Cr1737   2.000       .  S
O1729      C1730   1.262       .  A
C1730      O1731   1.260       .  A
C1730      C2217   1.486       .  S
O1731     Cr1738   1.991       .  S
O1732     Cr1738   2.058       .  S
O1732      C1733   1.278       .  A
C1733      O1734   1.254       .  A
C1733      C2086   1.498       .  S
O1734     Cr1739   1.949       .  S
O1735     Cr1739   2.032       .  S
O1735      C1736   1.274       .  A
C1736      C2246   1.472       .  S
Cr1737     O1740   1.762       .  S
Cr1738     O1740   1.773       .  S
Cr1739     O1740   1.769       .  S
O1741     Cr1759   2.009       .  S
O1741      C1749   1.262       .  A
O1742     Cr1759   1.949       .  S
O1742      C1743   1.264       .  A
C1743      O1744   1.283       .  A
C1743      C1997   1.483       .  S
O1744     Cr1760   2.054       .  S
O1745     Cr1760   1.957       .  S
O1745      C1746   1.255       .  A
C1746      O1747   1.269       .  A
C1746      C2057   1.476       .  S
O1747     Cr1761   2.028       .  S
O1748     Cr1761   1.990       .  S
O1748      C1749   1.257       .  A
C1749      C2017   1.493       .  S
O1750     Cr1759   1.960       .  S
O1750      C1758   1.261       .  A
O1751     Cr1759   1.997       .  S
O1751      C1752   1.256       .  A
C1752      O1753   1.256       .  A
C1752      C2266   1.490       .  S
O1753     Cr1760   1.995       .  S
O1754     Cr1760   2.037       .  S
O1754      C1755   1.273       .  A
C1755      O1756   1.256       .  A
C1755      C2037   1.495       .  S
O1756     Cr1761   1.956       .  S
O1757     Cr1761   2.044       .  S
O1757      C1758   1.278       .  A
C1758      C2286   1.481       .  S
Cr1759     O1762   1.773       .  S
Cr1760     O1762   1.773       .  S
Cr1761     O1762   1.773       .  S
O1763     Cr1781   1.992       .  S
O1763      C1771   1.257       .  A
O1764     Cr1781   1.944       .  S
O1764      C1765   1.261       .  A
C1765      O1766   1.279       .  A
C1765      C2346   1.483       .  S
O1766     Cr1782   2.046       .  S
O1767     Cr1782   1.957       .  S
O1767      C1768   1.254       .  A
C1768      O1769   1.271       .  A
C1768      C2046   1.486       .  S
O1769     Cr1783   2.035       .  S
O1770     Cr1783   1.990       .  S
O1770      C1771   1.257       .  A
C1771      C2326   1.482       .  S
O1772     Cr1781   1.950       .  S
O1772      C1780   1.261       .  A
O1773     Cr1781   1.987       .  S
O1773      C1774   1.257       .  A
C1774      O1775   1.259       .  A
C1774      C2766   1.478       .  S
O1775     Cr1782   1.997       .  S
O1776     Cr1782   2.045       .  S
O1776      C1777   1.274       .  A
C1777      O1778   1.254       .  A
C1777      C1977   1.495       .  S
O1778     Cr1783   1.945       .  S
O1779     Cr1783   2.046       .  S
O1779      C1780   1.279       .  A
C1780      C2777   1.481       .  S
Cr1781     O1784   1.768       .  S
Cr1782     O1784   1.778       .  S
Cr1783     O1784   1.773       .  S
O1785     Cr1803   1.994       .  S
O1786     Cr1803   1.940       .  S
O1786      C1787   1.260       .  A
C1787      O1788   1.281       .  A
C1787      C1937   1.486       .  S
O1788     Cr1804   2.053       .  S
O1789     Cr1804   1.951       .  S
O1789      C1790   1.253       .  A
C1790      O1791   1.271       .  A
C1790      C2066   1.484       .  S
O1792     Cr1805   1.998       .  S
O1792      C1793   1.260       .  A
C1793      C1957   1.490       .  S
O1794      C1802   1.263       .  A
O1795     Cr1803   1.999       .  S
O1795      C1796   1.259       .  A
C1796      O1797   1.258       .  A
C1796      C2877   1.490       .  S
O1797     Cr1804   1.994       .  S
O1798     Cr1804   2.047       .  S
O1798      C1799   1.275       .  A
C1799      O1800   1.256   1_556  A
C1799      C1986   1.494       .  S
O1801     Cr1805   2.039       .  S
O1801      C1802   1.278       .  A
C1802      C2897   1.479       .  S
Cr1803     O1806   1.766       .  S
Cr1804     O1806   1.769       .  S
O1807     Cr1825   1.949       .  S
O1807      C1815   1.263       .  A
O1808     Cr1825   1.995       .  S
O1808      C1809   1.257       .  A
C1809      O1810   1.255       .  A
C1809      C1946   1.489       .  S
O1810     Cr1826   1.995       .  S
O1811     Cr1826   2.029       .  S
O1811      C1812   1.271       .  A
C1812      O1813   1.255       .  A
C1812      C1917   1.485       .  S
O1813     Cr1827   1.951       .  S
O1814     Cr1827   2.060       .  S
O1814      C1815   1.283       .  A
C1815      C1966   1.486       .  S
O1816     Cr1825   1.992       .  S
O1816      C1824   1.257       .  A
O1817     Cr1825   1.948       .  S
O1817      C1818   1.263       .  A
C1818      O1819   1.281       .  A
C1818      C2126   1.478       .  S
O1819     Cr1826   2.050       .  S
O1820     Cr1826   1.953       .  S
O1820      C1821   1.255       .  A
C1821      O1822   1.274       .  A
C1821      C1897   1.487       .  S
O1822     Cr1827   2.040       .  S
O1823     Cr1827   1.999       .  S
O1823      C1824   1.256       .  A
C1824      C2097   1.485       .  S
Cr1825     O1828   1.770       .  S
Cr1826     O1828   1.772       .  S
Cr1827     O1828   1.773       .  S
O1829     Cr1847   1.950       .  S
O1829      C1837   1.259       .  A
O1830     Cr1847   2.001       .  S
C1831      O1832   1.258       .  A
C1831      C2006   1.485   1_554  S
O1832     Cr1848   2.002       .  S
O1833      C1834   1.272       .  A
C1834      O1835   1.253       .  A
C1834      C1926   1.476       .  S
O1835     Cr1849   1.948       .  S
O1836     Cr1849   2.050       .  S
O1836      C1837   1.278       .  A
C1837      C2026   1.481       .  S
O1838     Cr1847   2.000       .  S
O1838      C1846   1.262       .  A
O1839      C1840   1.264   1_554  A
C1840      O1841   1.281       .  A
C1840      C2617   1.479       .  S
O1841     Cr1848   2.045   1_556  S
O1842      C1843   1.254       .  A
C1843      O1844   1.274       .  A
C1843      C1886   1.497       .  S
O1844     Cr1849   2.047       .  S
O1845     Cr1849   1.981       .  S
O1845      C1846   1.256       .  A
C1846      C2597   1.478       .  S
Cr1847     O1850   1.766       .  S
Cr1849     O1850   1.774       .  S
O1851     Cr1869   1.952       .  S
O1851      C1859   1.263       .  A
O1852     Cr1869   2.002       .  S
O1852      C1853   1.261       .  A
C1853      O1854   1.258       .  A
C1853      C2146   1.489       .  S
O1854     Cr1870   1.994       .  S
O1855     Cr1870   2.035       .  S
O1855      C1856   1.272       .  A
C1856      O1857   1.257       .  A
C1856      C1906   1.497       .  S
O1857     Cr1871   1.962       .  S
O1858     Cr1871   2.040       .  S
O1858      C1859   1.279       .  A
C1859      C2157   1.479       .  S
O1860     Cr1869   1.994       .  S
O1860      C1868   1.258       .  A
O1861     Cr1869   1.950       .  S
O1861      C1862   1.260       .  A
C1862      O1863   1.278       .  A
C1862      C2457   1.476       .  S
O1863     Cr1870   2.045       .  S
O1864     Cr1870   1.957       .  S
O1864      C1865   1.255       .  A
C1865      O1866   1.270       .  A
C1865      C1877   1.480       .  S
O1866     Cr1871   2.027       .  S
O1867     Cr1871   1.989       .  S
O1867      C1868   1.255       .  A
C1868      C2446   1.484       .  S
Cr1869     O1872   1.775       .  S
Cr1870     O1872   1.778       .  S
Cr1871     O1872   1.772       .  S
C1873      C1874   1.412       .  A
C1873      C1878   1.409       .  A
C1873      H1883   1.083       .  S
C1874      C1879   1.496       .  S
C1874      C1875   1.407       .  A
C1875      C1876   1.396       .  A
C1875      F1880   1.357       .  S
C1876      C1877   1.403       .  A
C1876      H1881   1.084       .  S
C1877      C1878   1.405       .  A
C1878      F1882   1.357       .  S
C1879      C1884   1.405       .  A
C1879      C1888   1.411   1_556  A
C1884      C1885   1.400       .  A
C1884      F1889   1.358       .  S
C1885      H1890   1.083       .  S
C1886      C1887   1.406       .  A
C1887      F1891   1.357       .  S
C1888      H1892   1.083       .  S
C1893      C1894   1.414       .  A
C1893      C1898   1.411       .  A
C1893      H1903   1.083       .  S
C1894      C1899   1.500       .  S
C1894      C1895   1.406       .  A
C1895      C1896   1.398       .  A
C1895      F1900   1.358       .  S
C1896      C1897   1.407       .  A
C1896      H1901   1.084       .  S
C1897      C1898   1.405       .  A
C1898      F1902   1.357       .  S
C1899      C1904   1.405       .  A
C1899      C1908   1.412       .  A
C1904      C1905   1.400       .  A
C1904      F1909   1.357       .  S
C1905      C1906   1.411       .  A
C1905      H1910   1.082       .  S
C1906      C1907   1.408       .  A
C1907      C1908   1.409       .  A
C1907      F1911   1.357       .  S
C1908      H1912   1.082       .  S
C1913      C1914   1.398       .  A
C1913      C1918   1.394       .  A
C1913      H1923   1.083       .  S
C1914      C1919   1.482       .  S
C1914      C1915   1.410       .  A
C1915      C1916   1.406       .  A
C1915      F1920   1.357       .  S
C1916      C1917   1.406       .  A
C1916      H1921   1.083       .  S
C1917      C1918   1.413       .  A
C1918      F1922   1.358       .  S
C1919      C1924   1.402       .  A
C1919      C1928   1.408       .  A
C1924      C1925   1.397       .  A
C1924      F1929   1.357       .  S
C1925      C1926   1.408       .  A
C1925      H1930   1.084       .  S
C1926      C1927   1.404       .  A
C1927      C1928   1.403       .  A
C1927      F1931   1.357       .  S
C1928      H1932   1.083       .  S
C1933      C1934   1.409       .  A
C1933      C1938   1.409       .  A
C1933      H1943   1.083       .  S
C1934      C1939   1.487       .  S
C1934      C1935   1.404       .  A
C1935      C1936   1.390       .  A
C1935      F1940   1.358       .  S
C1936      C1937   1.407       .  A
C1936      H1941   1.083       .  S
C1937      C1938   1.409       .  A
C1938      F1942   1.357       .  S
C1939      C1944   1.407       .  A
C1939      C1948   1.403       .  A
C1944      C1945   1.406       .  A
C1944      F1949   1.357       .  S
C1945      C1946   1.409       .  A
C1945      H1950   1.082       .  S
C1946      C1947   1.411       .  A
C1947      C1948   1.395       .  A
C1947      F1951   1.358       .  S
C1948      H1952   1.083       .  S
C1953      C1954   1.409       .  A
C1953      C1958   1.405       .  A
C1953      H1963   1.083       .  S
C1954      C1959   1.491       .  S
C1954      C1955   1.405       .  A
C1955      C1956   1.399       .  A
C1955      F1960   1.357       .  S
C1956      C1957   1.409       .  A
C1956      H1961   1.082       .  S
C1957      C1958   1.409       .  A
C1958      F1962   1.357       .  S
C1959      C1964   1.404       .  A
C1959      C1968   1.412       .  A
C1964      C1965   1.394       .  A
C1964      F1969   1.358       .  S
C1965      C1966   1.406       .  A
C1965      H1970   1.083       .  S
C1966      C1967   1.407       .  A
C1967      C1968   1.411       .  A
C1967      F1971   1.357       .  S
C1968      H1972   1.082       .  S
C1973      C1974   1.413       .  A
C1973      C1978   1.409       .  A
C1973      H1983   1.082       .  S
C1974      C1979   1.495       .  S
C1974      C1975   1.403       .  A
C1975      C1976   1.395       .  A
C1975      F1980   1.358       .  S
C1976      C1977   1.412       .  A
C1976      H1981   1.082       .  S
C1977      C1978   1.408       .  A
C1978      F1982   1.357       .  S
C1979      C1984   1.406       .  A
C1979      C1988   1.412       .  A
C1984      F1989   1.357       .  S
C1985      C1986   1.410   1_554  A
C1985      H1990   1.083       .  S
C1987      C1988   1.405       .  A
C1988      H1992   1.082       .  S
C1993      C1994   1.408       .  A
C1993      C1998   1.409       .  A
C1993      H2003   1.083       .  S
C1994      C1999   1.487       .  S
C1994      C1995   1.405       .  A
C1995      C1996   1.392       .  A
C1995      F2000   1.358       .  S
C1996      C1997   1.405       .  A
C1996      H2001   1.084       .  S
C1997      C1998   1.408       .  A
C1998      F2002   1.357       .  S
C1999      C2004   1.409       .  A
C1999      C2008   1.403       .  A
C2004      C2005   1.406       .  A
C2004      F2009   1.357       .  S
C2005      C2006   1.406       .  A
C2006      C2007   1.410       .  A
C2007      C2008   1.396       .  A
C2007      F2011   1.358   1_556  S
C2008      H2012   1.083       .  S
C2013      C2014   1.406       .  A
C2013      C2018   1.402       .  A
C2013      H2023   1.083       .  S
C2014      C2019   1.489       .  S
C2014      C2015   1.405       .  A
C2015      C2016   1.401       .  A
C2015      F2020   1.357       .  S
C2016      C2017   1.409       .  A
C2016      H2021   1.082       .  S
C2017      C2018   1.411       .  A
C2018      F2022   1.357       .  S
C2019      C2024   1.404       .  A
C2019      C2028   1.411       .  A
C2024      C2025   1.393       .  A
C2024      F2029   1.358       .  S
C2025      C2026   1.405       .  A
C2025      H2030   1.083       .  S
C2026      C2027   1.407       .  A
C2027      C2028   1.410       .  A
C2027      F2031   1.357       .  S
C2028      H2032   1.083       .  S
C2033      C2034   1.414       .  A
C2033      C2038   1.408       .  A
C2033      H2043   1.082       .  S
C2034      C2039   1.502       .  S
C2034      C2035   1.407       .  A
C2035      C2036   1.398       .  A
C2035      F2040   1.357       .  S
C2036      C2037   1.411       .  A
C2036      H2041   1.084       .  S
C2037      C2038   1.407       .  A
C2038      F2042   1.357       .  S
C2039      C2044   1.409       .  A
C2039      C2048   1.414       .  A
C2044      C2045   1.400       .  A
C2044      F2049   1.357       .  S
C2045      C2046   1.408       .  A
C2045      H2050   1.083       .  S
C2046      C2047   1.404       .  A
C2047      C2048   1.406       .  A
C2047      F2051   1.357       .  S
C2048      H2052   1.081       .  S
C2053      C2054   1.410       .  A
C2053      C2058   1.407       .  A
C2053      H2063   1.083       .  S
C2054      C2059   1.494       .  S
C2054      C2055   1.408       .  A
C2055      C2056   1.398       .  A
C2055      F2060   1.358       .  S
C2056      C2057   1.403       .  A
C2056      H2061   1.084       .  S
C2057      C2058   1.404       .  A
C2058      F2062   1.357       .  S
C2059      C2064   1.413       .  A
C2059      C2068   1.402       .  A
C2064      C2065   1.405       .  A
C2064      F2069   1.357       .  S
C2065      C2066   1.403       .  A
C2065      H2070   1.083       .  S
C2066      C2067   1.411       .  A
C2067      C2068   1.399       .  A
C2067      F2071   1.358       .  S
C2068      H2072   1.083       .  S
C2073      C2074   1.413       .  A
C2073      C2078   1.409       .  A
C2073      H2083   1.083   1_565  S
C2074      C2079   1.499   1_565  S
C2074      C2075   1.405       .  A
C2075      C2076   1.400       .  A
C2075      F2080   1.357       .  S
C2076      C2077   1.409       .  A
C2076      H2081   1.084       .  S
C2077      C2078   1.407       .  A
C2078      F2082   1.357       .  S
C2079      C2084   1.404       .  A
C2079      C2088   1.413       .  A
C2084      C2085   1.398       .  A
C2084      F2089   1.358       .  S
C2085      C2086   1.412       .  A
C2085      H2090   1.083       .  S
C2086      C2087   1.407       .  A
C2087      C2088   1.410       .  A
C2087      F2091   1.357       .  S
C2088      H2092   1.083   1_545  S
C2093      C2094   1.407       .  A
C2093      C2098   1.407       .  A
C2093      H2103   1.082       .  S
C2094      C2099   1.486       .  S
C2094      C2095   1.404       .  A
C2095      C2096   1.395       .  A
C2095      F2100   1.358       .  S
C2096      C2097   1.406       .  A
C2096      H2101   1.082       .  S
C2097      C2098   1.409       .  A
C2098      F2102   1.357       .  S
C2099      C2104   1.409       .  A
C2099      C2108   1.402       .  A
C2104      C2105   1.409       .  A
C2104      F2109   1.357       .  S
C2105      C2106   1.407       .  A
C2105      H2110   1.082       .  S
C2106      C2107   1.407       .  A
C2107      C2108   1.391       .  A
C2108      H2112   1.084       .  S
C2113      C2114   1.403       .  A
C2113      C2118   1.398       .  A
C2113      H2123   1.083       .  S
C2114      C2119   1.488       .  S
C2114      C2115   1.410       .  A
C2115      C2116   1.400       .  A
C2115      F2120   1.357       .  S
C2116      C2117   1.404       .  A
C2116      H2121   1.083       .  S
C2117      C2118   1.411       .  A
C2118      F2122   1.358       .  S
C2119      C2124   1.412       .  A
C2119      C2128   1.403       .  A
C2124      C2125   1.406       .  A
C2124      F2129   1.357       .  S
C2125      C2126   1.404       .  A
C2125      H2130   1.083       .  S
C2126      C2127   1.408       .  A
C2127      C2128   1.393       .  A
C2127      F2131   1.359       .  S
C2128      H2132   1.083       .  S
C2133      H2143   1.083       .  S
C2134      C2135   1.410       .  A
C2135      C2136   1.396       .  A
C2135      F2140   1.357       .  S
C2136      C2137   1.401       .  A
C2136      H2141   1.083       .  S
C2137      C2138   1.408       .  A
C2139      C2144   1.408       .  A
C2139      C2148   1.404       .  A
C2144      C2145   1.406       .  A
C2144      F2149   1.357       .  S
C2145      C2146   1.408       .  A
C2145      H2150   1.082       .  S
C2146      C2147   1.409       .  A
C2147      C2148   1.398       .  A
C2147      F2151   1.358       .  S
C2153      C2154   1.407       .  A
C2153      C2158   1.406       .  A
C2153      H2163   1.082       .  S
C2154      C2159   1.488       .  S
C2154      C2155   1.408       .  A
C2155      C2156   1.394       .  A
C2155      F2160   1.358       .  S
C2156      C2157   1.403       .  A
C2156      H2161   1.083       .  S
C2157      C2158   1.407       .  A
C2158      F2162   1.356       .  S
C2159      C2164   1.404       .  A
C2159      C2168   1.408       .  A
C2164      C2165   1.395       .  A
C2164      F2169   1.358       .  S
C2165      C2166   1.407       .  A
C2165      H2170   1.083       .  S
C2166      C2167   1.409       .  A
C2167      C2168   1.406       .  A
C2167      F2171   1.357       .  S
C2168      H2172   1.083       .  S
C2173      C2174   1.409       .  A
C2173      C2178   1.403       .  A
C2173      H2183   1.084       .  S
C2174      C2179   1.489       .  S
C2174      C2175   1.405       .  A
C2175      C2176   1.396       .  A
C2175      F2180   1.358       .  S
C2176      C2177   1.408       .  A
C2176      H2181   1.084       .  S
C2177      C2178   1.406       .  A
C2178      F2182   1.357       .  S
C2179      C2184   1.405       .  A
C2179      C2188   1.409       .  A
C2184      C2185   1.398       .  A
C2184      F2189   1.357       .  S
C2185      C2186   1.407       .  A
C2185      H2190   1.085       .  S
C2186      C2187   1.405       .  A
C2187      C2188   1.402       .  A
C2187      F2191   1.357       .  S
C2188      H2192   1.084       .  S
C2193      C2194   1.400       .  A
C2193      C2198   1.395       .  A
C2193      H2203   1.083       .  S
C2194      C2199   1.500       .  S
C2194      C2195   1.416       .  A
C2195      F2200   1.357       .  S
C2196      C2197   1.410   1_554  A
C2196      H2201   1.084       .  S
C2198      F2202   1.357       .  S
C2199      C2204   1.405       .  A
C2199      C2208   1.414       .  A
C2204      C2205   1.396       .  A
C2204      F2209   1.357       .  S
C2205      C2206   1.411       .  A
C2205      H2210   1.082       .  S
C2206      C2207   1.407       .  A
C2207      C2208   1.410       .  A
C2207      F2211   1.357       .  S
C2208      H2212   1.082       .  S
C2213      C2214   1.401       .  A
C2213      C2218   1.396       .  A
C2213      H2223   1.083       .  S
C2214      C2219   1.480       .  S
C2214      C2215   1.406       .  A
C2215      C2216   1.405       .  A
C2215      F2220   1.357       .  S
C2216      C2217   1.408       .  A
C2216      H2221   1.082       .  S
C2217      C2218   1.410       .  A
C2218      F2222   1.358       .  S
C2219      C2224   1.407       .  A
C2219      C2228   1.399       .  A
C2224      C2225   1.408       .  A
C2224      F2229   1.357       .  S
C2225      C2226   1.407       .  A
C2225      H2230   1.082       .  S
C2226      C2227   1.410       .  A
C2227      C2228   1.391       .  A
C2227      F2231   1.358       .  S
C2228      H2232   1.084       .  S
C2233      C2234   1.399       .  A
C2233      C2238   1.391       .  A
C2233      H2243   1.083       .  S
C2234      C2239   1.474       .  S
C2234      C2235   1.406       .  A
C2235      C2236   1.403       .  A
C2235      F2240   1.358       .  S
C2236      C2237   1.406       .  A
C2237      C2238   1.409       .  A
C2238      F2242   1.358   1_556  S
C2239      C2244   1.403       .  A
C2239      C2248   1.405       .  A
C2244      C2245   1.389       .  A
C2244      F2249   1.358       .  S
C2245      C2246   1.404       .  A
C2245      H2250   1.084       .  S
C2246      C2247   1.407       .  A
C2247      C2248   1.403       .  A
C2247      F2251   1.357       .  S
C2248      H2252   1.083       .  S
C2253      C2254   1.403       .  A
C2253      C2258   1.399       .  A
C2253      H2263   1.082       .  S
C2254      C2259   1.488       .  S
C2254      C2255   1.411       .  A
C2255      C2256   1.403       .  A
C2255      F2260   1.357       .  S
C2256      C2257   1.401       .  A
C2256      H2261   1.082       .  S
C2257      C2258   1.407       .  A
C2258      F2262   1.358       .  S
C2259      C2264   1.408       .  A
C2259      C2268   1.402       .  A
C2264      C2265   1.404       .  A
C2264      F2269   1.357       .  S
C2265      C2266   1.408       .  A
C2265      H2270   1.083       .  S
C2266      C2267   1.412       .  A
C2267      C2268   1.397       .  A
C2267      F2271   1.358       .  S
C2268      H2272   1.083       .  S
C2273      C2274   1.400       .  A
C2273      C2278   1.395       .  A
C2273      H2283   1.083       .  S
C2274      C2279   1.489       .  S
C2274      C2275   1.410       .  A
C2275      C2276   1.408       .  A
C2275      F2280   1.357       .  S
C2276      C2277   1.409       .  A
C2276      H2281   1.083       .  S
C2277      C2278   1.413       .  A
C2278      F2282   1.357       .  S
C2279      C2284   1.405       .  A
C2279      C2288   1.410       .  A
C2284      C2285   1.399       .  A
C2284      F2289   1.358       .  S
C2285      C2286   1.407       .  A
C2285      H2290   1.084       .  S
C2286      C2287   1.404       .  A
C2287      C2288   1.406       .  A
C2287      F2291   1.357       .  S
C2288      H2292   1.083       .  S
C2293      C2294   1.405       .  A
C2293      C2298   1.397       .  A
C2293      H2303   1.083       .  S
C2294      C2299   1.502       .  S
C2294      C2295   1.417       .  A
C2295      C2296   1.407       .  A
C2295      F2300   1.357       .  S
C2296      C2297   1.405       .  A
C2296      H2301   1.083       .  S
C2297      C2298   1.409       .  A
C2298      F2302   1.358       .  S
C2299      C2304   1.407       .  A
C2299      C2308   1.415       .  A
C2304      C2305   1.399       .  A
C2304      F2309   1.358       .  S
C2305      H2310   1.083       .  S
C2306      C2307   1.406       .  A
C2307      F2311   1.357       .  S
C2308      H2312   1.082   1_556  S
C2313      C2314   1.400   1_556  A
C2313      C2318   1.391       .  A
C2313      H2323   1.084       .  S
C2314      C2315   1.409       .  A
C2315      C2316   1.409   1_554  A
C2316      C2317   1.408       .  A
C2316      H2321   1.083   1_556  S
C2317      C2318   1.412       .  A
C2318      F2322   1.358       .  S
C2319      C2324   1.404       .  A
C2319      C2328   1.400       .  A
C2324      C2325   1.402       .  A
C2325      C2326   1.406       .  A
C2325      H2330   1.082       .  S
C2326      C2327   1.411       .  A
C2327      C2328   1.396       .  A
C2327      F2331   1.358       .  S
C2328      H2332   1.083       .  S
C2333      C2334   1.402       .  A
C2333      C2338   1.396       .  A
C2333      H2343   1.083       .  S
C2334      C2339   1.480       .  S
C2334      C2335   1.405       .  A
C2335      C2336   1.403       .  A
C2335      F2340   1.357       .  S
C2336      C2337   1.407       .  A
C2336      H2341   1.082       .  S
C2337      C2338   1.410       .  A
C2338      F2342   1.358       .  S
C2339      C2344   1.401       .  A
C2339      C2348   1.408       .  A
C2344      C2345   1.388       .  A
C2344      F2349   1.358       .  S
C2345      C2346   1.406       .  A
C2345      H2350   1.083       .  S
C2346      C2347   1.410       .  A
C2347      C2348   1.410       .  A
C2347      F2351   1.357       .  S
C2348      H2352   1.082       .  S
C2353      C2354   1.407       .  A
C2353      C2358   1.407       .  A
C2353      H2363   1.083       .  S
C2354      C2359   1.482       .  S
C2354      C2355   1.401       .  A
C2355      C2356   1.393       .  A
C2355      F2360   1.358       .  S
C2356      C2357   1.409       .  A
C2356      H2361   1.083       .  S
C2357      C2358   1.408       .  A
C2358      F2362   1.357       .  S
C2359      C2364   1.403       .  A
C2359      C2368   1.406       .  A
C2364      C2365   1.399       .  A
C2364      F2369   1.358       .  S
C2365      C2366   1.409       .  A
C2366      C2367   1.408       .  A
C2367      C2368   1.402       .  A
C2367      F2371   1.357       .  S
C2368      H2372   1.083       .  S
C2373      C2374   1.402       .  A
C2373      C2378   1.390       .  A
C2373      H2383   1.084       .  S
C2374      C2379   1.487       .  S
C2374      C2375   1.410       .  A
C2375      C2376   1.409       .  A
C2375      F2380   1.357       .  S
C2376      C2377   1.407       .  A
C2376      H2381   1.084       .  S
C2377      C2378   1.406       .  A
C2378      F2382   1.358       .  S
C2379      C2384   1.406       .  A
C2379      C2388   1.407       .  A
C2384      C2385   1.394       .  A
C2384      F2389   1.358       .  S
C2385      C2386   1.405       .  A
C2385      H2390   1.083       .  S
C2386      C2387   1.410       .  A
C2387      C2388   1.407       .  A
C2387      F2391   1.357       .  S
C2388      H2392   1.083       .  S
C2393      C2394   1.401       .  A
C2393      C2398   1.401       .  A
C2393      H2403   1.083       .  S
C2394      C2399   1.494       .  S
C2394      C2395   1.412       .  A
C2395      C2396   1.409       .  A
C2395      F2400   1.357       .  S
C2396      C2397   1.405       .  A
C2396      H2401   1.083       .  S
C2397      C2398   1.414       .  A
C2398      F2402   1.358       .  S
C2399      C2404   1.404       .  A
C2399      C2408   1.409       .  A
C2404      C2405   1.403       .  A
C2404      F2409   1.357       .  S
C2405      C2406   1.409       .  A
C2405      H2410   1.083       .  S
C2406      C2407   1.408       .  A
C2407      C2408   1.408       .  A
C2407      F2411   1.357       .  S
C2408      H2412   1.083       .  S
C2413      C2414   1.410       .  A
C2413      C2418   1.405       .  A
C2413      H2423   1.088       .  S
C2414      C2419   1.495   1_565  S
C2414      C2415   1.406       .  A
C2415      C2416   1.399       .  A
C2415      F2420   1.357       .  S
C2416      C2417   1.410       .  A
C2416      H2421   1.089       .  S
C2417      C2418   1.405       .  A
C2418      F2422   1.357       .  S
C2419      C2424   1.414       .  A
C2419      C2428   1.402       .  A
C2424      C2425   1.408       .  A
C2424      F2429   1.357   1_545  S
C2425      C2426   1.404       .  A
C2425      H2430   1.083       .  S
C2426      C2427   1.411       .  A
C2427      C2428   1.397       .  A
C2427      F2431   1.357       .  S
C2428      H2432   1.083       .  S
C2433      C2434   1.399       .  A
C2433      C2438   1.391       .  A
C2433      H2443   1.084       .  S
C2434      C2439   1.482       .  S
C2434      C2435   1.409       .  A
C2435      C2436   1.408       .  A
C2435      F2440   1.357       .  S
C2436      C2437   1.407       .  A
C2436      H2441   1.083       .  S
C2437      C2438   1.411       .  A
C2438      F2442   1.358       .  S
C2439      C2444   1.404       .  A
C2439      C2448   1.406       .  A
C2444      C2445   1.398       .  A
C2444      F2449   1.357       .  S
C2445      C2446   1.408       .  A
C2445      H2450   1.083       .  S
C2446      C2447   1.408       .  A
C2447      C2448   1.400       .  A
C2447      F2451   1.357       .  S
C2448      H2452   1.083       .  S
C2453      C2454   1.402   1_556  A
C2453      C2458   1.394       .  A
C2454      C2455   1.412       .  A
C2455      C2456   1.406       .  A
C2455      F2460   1.357       .  S
C2456      C2457   1.403   1_554  A
C2456      H2461   1.083       .  S
C2457      C2458   1.408       .  A
C2458      F2462   1.359       .  S
C2459      C2464   1.407       .  A
C2459      C2468   1.403       .  A
C2464      C2465   1.397       .  A
C2464      F2469   1.357       .  S
C2465      C2466   1.404       .  A
C2465      H2470   1.083       .  S
C2466      C2467   1.411       .  A
C2467      C2468   1.398       .  A
C2467      F2471   1.358       .  S
C2473      C2474   1.408       .  A
C2473      C2478   1.408       .  A
C2474      C2475   1.404       .  A
C2475      C2476   1.398       .  A
C2475      F2480   1.358       .  S
C2476      C2477   1.410       .  A
C2476      H2481   1.083       .  S
C2477      C2478   1.411       .  A
C2478      F2482   1.357       .  S
C2479      C2484   1.411       .  A
C2479      C2488   1.400       .  A
C2484      C2485   1.410       .  A
C2484      F2489   1.357       .  S
C2485      C2486   1.407       .  A
C2485      H2490   1.083       .  S
C2486      C2487   1.410       .  A
C2487      C2488   1.392       .  A
C2487      F2491   1.358       .  S
C2493      C2494   1.401       .  A
C2493      C2498   1.388       .  A
C2493      H2503   1.083       .  S
C2494      C2499   1.478       .  S
C2494      C2495   1.411       .  A
C2495      C2496   1.403       .  A
C2495      F2500   1.358       .  S
C2496      C2497   1.402       .  A
C2496      H2501   1.083       .  S
C2497      C2498   1.402       .  A
C2498      F2502   1.358       .  S
C2499      C2504   1.407       .  A
C2499      C2508   1.401       .  A
C2504      C2505   1.398       .  A
C2504      F2509   1.357       .  S
C2505      C2506   1.404       .  A
C2505      H2510   1.083       .  S
C2506      C2507   1.413       .  A
C2507      C2508   1.395       .  A
C2507      F2511   1.358       .  S
C2508      H2512   1.083       .  S
C2513      C2514   1.414       .  A
C2513      C2518   1.410       .  A
C2513      H2523   1.082       .  S
C2514      C2519   1.505       .  S
C2514      C2515   1.407       .  A
C2515      F2520   1.357       .  S
C2516      C2517   1.412   1_554  A
C2516      H2521   1.083       .  S
C2519      C2524   1.406       .  A
C2519      C2528   1.414       .  A
C2524      C2525   1.401       .  A
C2524      F2529   1.357       .  S
C2525      C2526   1.412       .  A
C2525      H2530   1.083       .  S
C2526      C2527   1.407       .  A
C2527      C2528   1.410       .  A
C2527      F2531   1.357       .  S
C2528      H2532   1.082       .  S
C2533      C2534   1.401       .  A
C2533      C2538   1.400       .  A
C2533      H2543   1.083       .  S
C2534      C2539   1.477       .  S
C2534      C2535   1.405       .  A
C2535      C2536   1.401       .  A
C2535      F2540   1.357       .  S
C2536      C2537   1.406       .  A
C2536      H2541   1.083       .  S
C2537      C2538   1.410       .  A
C2538      F2542   1.357       .  S
C2539      C2544   1.400       .  A
C2539      C2548   1.405       .  A
C2544      C2545   1.393       .  A
C2544      F2549   1.358       .  S
C2545      C2546   1.410       .  A
C2546      C2547   1.409       .  A
C2547      C2548   1.407       .  A
C2547      F2551   1.357       .  S
C2548      H2552   1.083       .  S
C2553      C2554   1.406       .  A
C2553      C2558   1.405       .  A
C2553      H2563   1.083       .  S
C2554      C2559   1.484       .  S
C2554      C2555   1.402       .  A
C2555      C2556   1.397       .  A
C2555      F2560   1.358       .  S
C2556      C2557   1.409       .  A
C2556      H2561   1.082       .  S
C2557      C2558   1.411       .  A
C2558      F2562   1.357       .  S
C2559      C2564   1.402       .  A
C2559      C2568   1.410       .  A
C2564      C2565   1.393       .  A
C2564      F2569   1.358       .  S
C2565      C2566   1.406       .  A
C2565      H2570   1.083       .  S
C2566      C2567   1.406       .  A
C2567      C2568   1.408       .  A
C2567      F2571   1.357       .  S
C2568      H2572   1.083       .  S
C2573      C2574   1.401       .  A
C2573      C2578   1.399       .  A
C2573      H2583   1.083       .  S
C2574      C2579   1.491       .  S
C2574      C2575   1.412       .  A
C2575      C2576   1.405       .  A
C2575      F2580   1.357       .  S
C2576      C2577   1.403       .  A
C2576      H2581   1.083       .  S
C2577      C2578   1.411       .  A
C2578      F2582   1.357       .  S
C2579      C2584   1.413       .  A
C2579      C2588   1.400       .  A
C2584      C2585   1.408       .  A
C2584      F2589   1.357       .  S
C2585      C2586   1.405       .  A
C2585      H2590   1.083       .  S
C2586      C2587   1.413       .  A
C2587      C2588   1.396       .  A
C2587      F2591   1.358       .  S
C2588      H2592   1.083       .  S
C2593      C2594   1.406       .  A
C2593      C2598   1.401       .  A
C2593      H2603   1.082       .  S
C2594      C2599   1.481       .  S
C2594      C2595   1.405       .  A
C2595      C2596   1.395       .  A
C2595      F2600   1.358       .  S
C2596      C2597   1.404       .  A
C2596      H2601   1.083       .  S
C2597      C2598   1.408       .  A
C2598      F2602   1.357       .  S
C2599      C2604   1.408       .  A
C2599      C2608   1.403       .  A
C2604      C2605   1.403       .  A
C2604      F2609   1.357       .  S
C2605      C2606   1.403       .  A
C2605      H2610   1.083       .  S
C2606      C2607   1.405       .  A
C2607      C2608   1.393       .  A
C2607      F2611   1.358       .  S
C2608      H2612   1.083       .  S
C2613      C2614   1.404       .  A
C2613      C2618   1.393       .  A
C2613      H2623   1.084       .  S
C2614      C2619   1.488       .  S
C2614      C2615   1.410       .  A
C2615      C2616   1.406       .  A
C2615      F2620   1.357       .  S
C2616      C2617   1.406       .  A
C2616      H2621   1.083       .  S
C2617      C2618   1.406       .  A
C2618      F2622   1.358       .  S
C2619      C2624   1.409       .  A
C2619      C2628   1.403       .  A
C2624      C2625   1.405       .  A
C2624      F2629   1.357       .  S
C2625      C2626   1.407       .  A
C2625      H2630   1.082       .  S
C2626      C2627   1.411       .  A
C2627      C2628   1.396       .  A
C2627      F2631   1.358       .  S
C2628      H2632   1.083       .  S
C2633      C2634   1.403       .  A
C2633      C2638   1.399       .  A
C2633      H2643   1.083       .  S
C2634      C2639   1.496   1_655  S
C2634      C2635   1.413       .  A
C2635      C2636   1.406       .  A
C2635      F2640   1.357   1_655  S
C2636      C2637   1.404       .  A
C2636      H2641   1.083       .  S
C2637      C2638   1.414       .  A
C2638      F2642   1.358       .  S
C2639      C2644   1.413       .  A
C2639      C2648   1.404       .  A
C2644      C2645   1.405       .  A
C2644      F2649   1.357   1_455  S
C2645      C2646   1.405       .  A
C2645      H2650   1.083       .  S
C2646      C2647   1.412       .  A
C2647      C2648   1.400       .  A
C2647      F2651   1.358       .  S
C2648      H2652   1.083       .  S
C2653      C2654   1.406       .  A
C2653      C2658   1.400       .  A
C2653      H2663   1.083       .  S
C2654      C2659   1.484       .  S
C2654      C2655   1.404       .  A
C2655      C2656   1.400       .  A
C2655      F2660   1.357       .  S
C2656      C2657   1.408       .  A
C2656      H2661   1.083       .  S
C2657      C2658   1.408       .  A
C2658      F2662   1.357       .  S
C2659      C2664   1.403       .  A
C2659      C2668   1.409       .  A
C2664      C2665   1.391       .  A
C2664      F2669   1.358       .  S
C2665      C2666   1.407       .  A
C2666      C2667   1.408       .  A
C2667      C2668   1.408       .  A
C2667      F2671   1.357       .  S
C2668      H2672   1.083       .  S
C2673      C2674   1.401       .  A
C2673      C2678   1.393       .  A
C2673      H2683   1.083       .  S
C2674      C2679   1.479       .  S
C2674      C2675   1.405       .  A
C2675      C2676   1.405       .  A
C2675      F2680   1.357       .  S
C2676      C2677   1.409       .  A
C2676      H2681   1.082       .  S
C2677      C2678   1.411       .  A
C2678      F2682   1.358       .  S
C2679      C2684   1.399       .  A
C2679      C2688   1.409       .  A
C2684      C2685   1.384       .  A
C2684      F2689   1.359       .  S
C2685      C2686   1.409       .  A
C2685      H2690   1.083       .  S
C2686      C2687   1.410       .  A
C2687      C2688   1.412       .  A
C2687      F2691   1.357       .  S
C2688      H2692   1.082       .  S
C2693      C2694   1.408       .  A
C2693      C2698   1.399       .  A
C2693      H2703   1.083       .  S
C2694      C2699   1.485       .  S
C2694      C2695   1.405       .  A
C2695      C2696   1.396       .  A
C2695      F2700   1.357       .  S
C2696      C2697   1.405       .  A
C2696      H2701   1.083       .  S
C2697      C2698   1.406       .  A
C2698      F2702   1.357       .  S
C2699      C2704   1.405       .  A
C2699      C2708   1.410       .  A
C2704      C2705   1.389       .  A
C2704      F2709   1.358       .  S
C2705      C2706   1.405       .  A
C2705      H2710   1.084       .  S
C2706      C2707   1.406       .  A
C2707      C2708   1.406       .  A
C2707      F2711   1.357       .  S
C2708      H2712   1.083       .  S
C2713      C2714   1.400       .  A
C2713      C2718   1.396       .  A
C2713      H2723   1.083       .  S
C2714      C2719   1.476       .  S
C2714      C2715   1.406       .  A
C2715      C2716   1.397       .  A
C2715      F2720   1.358       .  S
C2716      C2717   1.404       .  A
C2717      C2718   1.410       .  A
C2718      F2722   1.358   1_556  S
C2719      C2724   1.401       .  A
C2719      C2728   1.408       .  A
C2724      C2725   1.387       .  A
C2724      F2729   1.359       .  S
C2725      C2726   1.408       .  A
C2725      H2730   1.084       .  S
C2726      C2727   1.406       .  A
C2727      C2728   1.406       .  A
C2727      F2731   1.356       .  S
C2728      H2732   1.083       .  S
C2733      C2734   1.400       .  A
C2733      C2738   1.399       .  A
C2733      H2743   1.083       .  S
C2734      C2739   1.486       .  S
C2734      C2735   1.410       .  A
C2735      C2736   1.407       .  A
C2735      F2740   1.357       .  S
C2736      C2737   1.405       .  A
C2736      H2741   1.083       .  S
C2737      C2738   1.411       .  A
C2738      F2742   1.358       .  S
C2739      C2744   1.402       .  A
C2739      C2748   1.407       .  A
C2744      F2749   1.357       .  S
C2745      C2746   1.411       .  A
C2745      H2750   1.083       .  S
C2747      C2748   1.407   1_554  A
C2747      F2751   1.357       .  S
C2748      H2752   1.083   1_556  S
C2753      C2754   1.406       .  A
C2753      C2758   1.408       .  A
C2753      H2763   1.082       .  S
C2754      C2759   1.479       .  S
C2754      C2755   1.399       .  A
C2755      C2756   1.390       .  A
C2755      F2760   1.358       .  S
C2756      C2757   1.409       .  A
C2756      H2761   1.082       .  S
C2757      C2758   1.411       .  A
C2758      F2762   1.357       .  S
C2759      C2764   1.402       .  A
C2759      C2768   1.407       .  A
C2764      C2765   1.398       .  A
C2764      F2769   1.357       .  S
C2765      C2766   1.407       .  A
C2765      H2770   1.083       .  S
C2766      C2767   1.405       .  A
C2767      C2768   1.402       .  A
C2767      F2771   1.357       .  S
C2768      H2772   1.083       .  S
C2773      C2774   1.407       .  A
C2773      C2778   1.407       .  A
C2773      H2783   1.082       .  S
C2774      C2775   1.402       .  A
C2775      C2776   1.393       .  A
C2776      C2777   1.405       .  A
C2776      H2781   1.083       .  S
C2777      C2778   1.408       .  A
C2778      F2782   1.357       .  S
C2779      C2784   1.405       .  A
C2779      C2788   1.402       .  A
C2784      C2785   1.402       .  A
C2785      C2786   1.408       .  A
C2785      H2790   1.082       .  S
C2786      C2787   1.411       .  A
C2787      C2788   1.397       .  A
C2787      F2791   1.358       .  S
C2788      H2792   1.083       .  S
C2793      C2794   1.409       .  A
C2793      C2798   1.406       .  A
C2794      C2795   1.404   1_554  A
C2795      C2796   1.391       .  A
C2795      F2800   1.358       .  S
C2796      C2797   1.404       .  A
C2796      H2801   1.084       .  S
C2797      C2798   1.405   1_556  A
C2798      F2802   1.357       .  S
C2799      C2804   1.405       .  A
C2799      C2808   1.407       .  A
C2804      C2805   1.401       .  A
C2805      C2806   1.409       .  A
C2805      H2810   1.082       .  S
C2806      C2807   1.410       .  A
C2807      C2808   1.406       .  A
C2807      F2811   1.357       .  S
C2808      H2812   1.082       .  S
C2813      C2814   1.404       .  A
C2813      C2818   1.400       .  A
C2813      H2823   1.083       .  S
C2814      C2819   1.491       .  S
C2814      C2815   1.410       .  A
C2815      C2816   1.402       .  A
C2815      F2820   1.357       .  S
C2816      C2817   1.406       .  A
C2816      H2821   1.082       .  S
C2817      C2818   1.412       .  A
C2818      F2822   1.358       .  S
C2819      C2824   1.406       .  A
C2819      C2828   1.413       .  A
C2824      C2825   1.392       .  A
C2824      F2829   1.357       .  S
C2825      C2826   1.403       .  A
C2825      H2830   1.083       .  S
C2826      C2827   1.405       .  A
C2827      C2828   1.409       .  A
C2827      F2831   1.357       .  S
C2828      H2832   1.082       .  S
C2833      C2834   1.411       .  A
C2833      C2838   1.406       .  A
C2833      H2843   1.083   1_655  S
C2834      C2839   1.493   1_655  S
C2834      C2835   1.405       .  A
C2835      C2836   1.398       .  A
C2835      F2840   1.357       .  S
C2836      C2837   1.409       .  A
C2836      H2841   1.084       .  S
C2837      C2838   1.405       .  A
C2838      F2842   1.357       .  S
C2839      C2844   1.414       .  A
C2839      C2848   1.402       .  A
C2844      C2845   1.407       .  A
C2844      F2849   1.357   1_455  S
C2845      C2846   1.403       .  A
C2845      H2850   1.083       .  S
C2846      C2847   1.412       .  A
C2847      C2848   1.397       .  A
C2847      F2851   1.358       .  S
C2848      H2852   1.083       .  S
C2853      C2854   1.412       .  A
C2853      C2858   1.406       .  A
C2853      H2863   1.083       .  S
C2854      C2859   1.495       .  S
C2854      C2855   1.405       .  A
C2855      C2856   1.398       .  A
C2855      F2860   1.358       .  S
C2856      C2857   1.411       .  A
C2856      H2861   1.083       .  S
C2857      C2858   1.405       .  A
C2858      F2862   1.357       .  S
C2859      C2864   1.414       .  A
C2859      C2868   1.403       .  A
C2864      C2865   1.405       .  A
C2864      F2869   1.357       .  S
C2865      C2866   1.404       .  A
C2865      H2870   1.084       .  S
C2866      C2867   1.411       .  A
C2867      C2868   1.397       .  A
C2867      F2871   1.358       .  S
C2868      H2872   1.084       .  S
C2873      C2874   1.406       .  A
C2873      C2878   1.402       .  A
C2873      H2883   1.083       .  S
C2874      C2879   1.487       .  S
C2874      C2875   1.405       .  A
C2875      C2876   1.399       .  A
C2875      F2880   1.358       .  S
C2876      C2877   1.409       .  A
C2876      H2881   1.083       .  S
C2877      C2878   1.409       .  A
C2878      F2882   1.357       .  S
C2879      C2884   1.405       .  A
C2879      C2888   1.409       .  A
C2884      C2885   1.395       .  A
C2884      F2889   1.358       .  S
C2885      C2886   1.406       .  A
C2885      H2890   1.084       .  S
C2886      C2887   1.405       .  A
C2887      C2888   1.406       .  A
C2887      F2891   1.357       .  S
C2888      H2892   1.083       .  S
C2893      C2894   1.403       .  A
C2893      C2898   1.395       .  A
C2893      H2903   1.083       .  S
C2894      C2899   1.484       .  S
C2894      C2895   1.407       .  A
C2895      C2896   1.407       .  A
C2895      F2900   1.357       .  S
C2896      C2897   1.407       .  A
C2896      H2901   1.083       .  S
C2897      C2898   1.406       .  A
C2898      F2902   1.358       .  S
C2899      C2904   1.404       .  A
C2899      C2908   1.407       .  A
C2904      C2905   1.395       .  A
C2904      F2909   1.357       .  S
C2905      C2906   1.404       .  A
C2905      H2910   1.084       .  S
C2906      C2907   1.407       .  A
C2907      C2908   1.406       .  A
C2907      F2911   1.357       .  S
C2908      H2912   1.083       .  S
C2913      C2914   1.411       .  A
C2913      C2918   1.405       .  A
C2913      H2923   1.082       .  S
C2914      C2919   1.494       .  S
C2914      C2915   1.408       .  A
C2915      C2916   1.395       .  A
C2915      F2920   1.357       .  S
C2916      C2917   1.403       .  A
C2916      H2921   1.084       .  S
C2917      C2918   1.403       .  A
C2918      F2922   1.357       .  S
C2919      C2924   1.408       .  A
C2919      C2928   1.407       .  A
C2924      C2925   1.400       .  A
C2924      F2929   1.357       .  S
C2925      C2926   1.407       .  A
C2926      C2927   1.409       .  A
C2927      C2928   1.401       .  A
C2927      F2931   1.357       .  S
C2928      H2932   1.083       .  S
C2933      C2934   1.405       .  A
C2933      C2938   1.403       .  A
C2933      H2943   1.083       .  S
C2934      C2939   1.484       .  S
C2934      C2935   1.404       .  A
C2935      C2936   1.399       .  A
C2935      F2940   1.358       .  S
C2936      C2937   1.408       .  A
C2936      H2941   1.083       .  S
C2937      C2938   1.409       .  A
C2938      F2942   1.357       .  S
C2939      C2944   1.407       .  A
C2939      C2948   1.401       .  A
C2944      C2945   1.406       .  A
C2944      F2949   1.356       .  S
C2945      C2946   1.404       .  A
C2945      H2950   1.083       .  S
C2946      C2947   1.413       .  A
C2947      C2948   1.396       .  A
C2947      F2951   1.359       .  S
C2948      H2952   1.084       .  S
