geometry optimzed in LAMMPS
_audit_creation_date              2020-12-01 
_audit_creation_method            'lammps2cif' 
_symmetry_space_group_name_H-M    'P1' 
_symmetry_Int_Tables_number       1 
_symmetry_cell_setting            triclinic 
loop_ 
_symmetry_equiv_pos_as_xyz 
  x,y,z 
_cell_length_a                    51.76784711 
_cell_length_b                    51.7598778124262 
_cell_length_c                    51.706086782809734 
_cell_angle_alpha                 89.88771438642894 
_cell_angle_beta                  89.98824753674148 
_cell_angle_gamma                 89.9529894493858 
loop_ 
_atom_site_label 
_atom_site_type_symbol 
_atom_site_fract_x 
_atom_site_fract_y 
_atom_site_fract_z 
_atom_site_charge 
O1          O  0.80681920  0.80167867  0.55588884    -0.80500
C2          C  0.71003274  0.81744618  0.59797519     0.98800
O3          O  0.73068050  0.80589713  0.60370412    -0.69700
O4          O  0.77324895  0.78040087  0.59402548    -0.73200
Al5        Al  0.76461076  0.81633027  0.59499296     1.49000
C6          C  0.76905929  0.76298618  0.57758843     0.94100
O7          O  0.74517881  0.79496486  0.51518192    -0.79500
O8          O  0.74955378  0.85280804  0.52043454    -0.73000
Al9        Al  0.77395603  0.80043781  0.53812036     1.90100
O10         O  0.71318722  0.81598319  0.53317913    -0.72100
O11         O  0.74686893  0.87057452  0.56835834    -0.71900
O12         O  0.70932340  0.83417283  0.58011215    -0.77600
O13         O  0.75743367  0.85137940  0.60455248    -0.75800
O14         O  0.75686395  0.81953829  0.56139360    -1.11900
O15         O  0.79965281  0.82616531  0.58985834    -0.71100
C16         C  0.81507730  0.81467239  0.57487492     0.99600
C17         C  0.72144962  0.80029979  0.51662799     0.96000
Al18       Al  0.73201337  0.84146859  0.55138208     1.55600
O19         O  0.76468168  0.76859175  0.55428931    -0.75800
C20         C  0.75247020  0.87165421  0.59201288     1.00100
C21         C  0.77141772  0.84798780  0.51062571     0.95000
O22         O  0.78515413  0.82963818  0.51889731    -0.81100
O23         O  0.81963507  0.97828553  0.28663579    -0.80500
C24         C  0.81044292  0.89933051  0.21054367     0.98800
O25         O  0.82607392  0.91810984  0.20986104    -0.69700
O26         O  0.80569682  0.96433213  0.21465650    -0.73200
Al27       Al  0.83224164  0.94680638  0.23299848     1.49000
C28         C  0.78919866  0.97991588  0.22331200     0.94100
O29         O  0.75986830  0.94040395  0.26695237    -0.79500
O30         O  0.81906138  0.90660308  0.30053232    -0.73000
Al31       Al  0.79116962  0.95780584  0.27570979     1.90100
O32         O  0.77353906  0.90097702  0.27403874    -0.72100
O33         O  0.84467878  0.89389733  0.25813998    -0.71900
O34         O  0.79932457  0.89294094  0.23125810    -0.77600
O35         O  0.86226885  0.93079180  0.24739467    -0.75800
O36         O  0.81102754  0.93554828  0.25802524    -1.11900
O37         O  0.84247536  0.97788885  0.25080207    -0.71100
C38         C  0.83751286  0.98734059  0.27278420     0.99600
C39         C  0.75536776  0.91679073  0.27071992     0.96000
Al40       Al  0.80936929  0.90172533  0.26536034     1.55600
O41         O  0.78405851  0.98067839  0.24714668    -0.75800
C42         C  0.86435445  0.90723880  0.25316661     1.00100
C43         C  0.80750846  0.92115057  0.31630521     0.95000
O44         O  0.79386315  0.93986308  0.30842943    -0.81100
O45         O  0.01803048  0.79420093  0.66723160    -0.80500
C46         C  0.10048565  0.72235055  0.67596722     0.98800
O47         O  0.08192226  0.72081426  0.66014269    -0.69700
O48         O  0.03562407  0.72309365  0.68028974    -0.73200
Al49       Al  0.05219464  0.74245513  0.65393937     1.49000
C50         C  0.01973000  0.73083333  0.69692015     0.94100
O51         O  0.05732904  0.77583036  0.72672670    -0.79500
O52         O  0.08865234  0.81160070  0.66710310    -0.73000
Al53       Al  0.03922774  0.78405947  0.69551986     1.90100
O54         O  0.09601360  0.78567803  0.71277137    -0.72100
O55         O  0.10384293  0.76977279  0.64159164    -0.71900
O56         O  0.10595644  0.74328623  0.68706664    -0.77600
O57         O  0.06747130  0.75766672  0.62393814    -0.75800
O58         O  0.06220156  0.76777101  0.67533535    -1.11900
O59         O  0.02033380  0.75885585  0.64380254    -0.71100
C60         C  0.00973622  0.78020936  0.64911827     0.99600
C61         C  0.08065102  0.78121094  0.73109934     0.96000
Al62       Al  0.09555723  0.77681340  0.67690147     1.55600
O63         O  0.01792623  0.75446923  0.70244031    -0.75800
C64         C  0.09083728  0.76403978  0.62189040     1.00100
C65         C  0.07355695  0.82646125  0.67918177     0.95000
O66         O  0.05547079  0.81753778  0.69301280    -0.81100
O67         O  0.20171084  0.17677290  0.47070293    -0.80500
C68         C  0.27544504  0.18960373  0.38999248     0.98800
O69         O  0.27677981  0.17341814  0.40829192    -0.69700
O70         O  0.27325797  0.19224832  0.45531185    -0.73200
Al71       Al  0.25465684  0.16614595  0.43746955     1.49000
C72         C  0.26480656  0.20783430  0.47191672     0.94100
O73         O  0.22016923  0.23848153  0.43491286    -0.79500
O74         O  0.18599928  0.18053755  0.39972063    -0.73000
Al75       Al  0.21195650  0.20632487  0.45125271     1.90100
O76         O  0.21215907  0.22628763  0.39516023    -0.72100
O77         O  0.22803439  0.15555008  0.38492651    -0.71900
O78         O  0.25461320  0.20101724  0.38472820    -0.77600
O79         O  0.24003988  0.13664110  0.42085470    -0.75800
O80         O  0.22918093  0.18756378  0.42772704    -1.11900
O81         O  0.23790874  0.15461018  0.46871207    -0.71100
C82         C  0.21602372  0.15873504  0.47874332     0.99600
C83         C  0.21570238  0.24386044  0.41155547     0.96000
Al84       Al  0.22091666  0.19051450  0.39421761     1.55600
O85         O  0.24095327  0.21247116  0.47370633    -0.75800
C86         C  0.23359752  0.13542220  0.39740510     1.00100
C87         C  0.17057377  0.19183613  0.41481326     0.95000
O88         O  0.17884384  0.20452155  0.43398650    -0.81100
O89         O  0.18272341  0.05656039  0.67959574    -0.80500
C90         C  0.17540552  0.10444821  0.77798327     0.98800
O91         O  0.17361480  0.11569245  0.75637481    -0.69700
O92         O  0.21276216  0.10592524  0.72642131    -0.73200
Al93       Al  0.17668367  0.10346489  0.72155989     1.49000
C94         C  0.23013475  0.09148428  0.71755305     0.94100
O95         O  0.21102435  0.03433385  0.74395697    -0.79500
O96         O  0.13597578  0.03656140  0.73321669    -0.73000
Al97       Al  0.19529442  0.04699191  0.71299824     1.90100
O98         O  0.17608753  0.03158655  0.76758259    -0.72100
O99         O  0.12803437  0.08453578  0.74998953    -0.71900
O100        O  0.17145631  0.08051057  0.78020272    -0.77600
O101        O  0.14048687  0.10594575  0.71565853    -0.75800
O102        O  0.17554015  0.06989130  0.72980646    -1.11900
O103        O  0.18054411  0.09851752  0.68509795    -0.71100
C104        C  0.18093403  0.07908612  0.67045460     0.99600
C105        C  0.19942160  0.02599715  0.76366921     0.96000
Al106      Al  0.15467349  0.05923176  0.75539003     1.55600
O107        O  0.22498189  0.06909120  0.70945807    -0.75800
C108        C  0.12353573  0.10068360  0.73228544     1.00100
C109        C  0.14597069  0.01925059  0.71921156     0.95000
O110        O  0.16958914  0.02007525  0.71293753    -0.81100
O111        O  0.93600957  0.18960689  0.30435547    -0.80500
C112        C  0.89141670  0.28974967  0.31308377     0.98800
O113        O  0.87958659  0.26847365  0.31396582    -0.69700
O114        O  0.88802633  0.23882451  0.27428439    -0.73200
Al115      Al  0.89059502  0.23332243  0.31034724     1.49000
C116        C  0.90174636  0.22903808  0.25682951     0.94100
O117        O  0.95947533  0.25284307  0.27471834    -0.79500
O118        O  0.95942190  0.24195155  0.34984316    -0.73000
Al119      Al  0.94637607  0.22243752  0.29098637     1.90100
O120        O  0.96365346  0.27654108  0.30953769    -0.72100
O121        O  0.91181999  0.25967056  0.35952134    -0.71900
O122        O  0.91547376  0.29092207  0.31662383    -0.77600
O123        O  0.88814340  0.22714994  0.34649675    -0.75800
O124        O  0.92449943  0.24012573  0.31121399    -1.11900
O125        O  0.89422642  0.19667368  0.30621578    -0.71100
C126        C  0.91317653  0.18132894  0.30627393     0.99600
C127        C  0.96862333  0.27230942  0.28605305     0.96000
Al128      Al  0.93654008  0.26496144  0.33210317     1.55600
O129        O  0.92352755  0.21937808  0.26189449    -0.75800
C130        C  0.89458155  0.24296005  0.36377845     1.00100
C131        C  0.97629533  0.22797232  0.33908115     0.95000
O132        O  0.97424433  0.22167447  0.31557659    -0.81100
O133        O  0.70057321  0.33255537  0.52154518    -0.80500
C134        C  0.77679935  0.31891003  0.59954698     0.98800
O135        O  0.77725970  0.33547162  0.58158418    -0.69700
O136        O  0.77263302  0.31600489  0.53489995    -0.73200
Al137      Al  0.75447935  0.34235323  0.55293794     1.49000
C138        C  0.76360997  0.30065976  0.51834911     0.94100
O139        O  0.71953795  0.27044763  0.55560258    -0.79500
O140        O  0.68721465  0.32780434  0.59300266    -0.73000
Al141      Al  0.71121494  0.30277065  0.54013439     1.90100
O142        O  0.71345056  0.28192470  0.59592770    -0.72100
O143        O  0.72961717  0.35262101  0.60624812    -0.71900
O144        O  0.75635294  0.30701301  0.60518953    -0.77600
O145        O  0.73982769  0.37168403  0.56976518    -0.75800
O146        O  0.72931046  0.32098314  0.56332512    -1.11900
O147        O  0.73731372  0.35370970  0.52193702    -0.71100
C148        C  0.71504620  0.34999294  0.51271426     0.99600
C149        C  0.71591280  0.26468757  0.57897004     0.96000
Al150      Al  0.72227682  0.31766745  0.59705954     1.55600
O151        O  0.73961405  0.29660166  0.51683468    -0.75800
C152        C  0.73405267  0.37282337  0.59340936     1.00100
C153        C  0.67121715  0.31735351  0.57793451     0.95000
O154        O  0.67873053  0.30481407  0.55836655    -0.81100
O155        O  0.69236893  0.44041246  0.31000520    -0.80500
C156        C  0.67995581  0.39836758  0.21284921     0.98800
O157        O  0.69080141  0.39259908  0.23387388    -0.69700
O158        O  0.71474910  0.40181096  0.27741315    -0.73200
Al159      Al  0.67923810  0.40122959  0.26741382     1.49000
C160        C  0.73252082  0.41808059  0.27428946     0.94100
O161        O  0.70238915  0.48051209  0.24824680    -0.79500
O162        O  0.64391254  0.47595420  0.25076475    -0.73000
Al163      Al  0.69531907  0.45797112  0.27713490     1.90100
O164        O  0.68181670  0.46289355  0.21575217    -0.72100
O165        O  0.62580446  0.42820626  0.24801269    -0.71900
O166        O  0.66325326  0.41616395  0.21156644    -0.77600
O167        O  0.64445145  0.39191824  0.25907637    -0.75800
O168        O  0.67659151  0.43483701  0.25949408    -1.11900
O169        O  0.66823385  0.40635009  0.30208603    -0.71100
C170        C  0.67919338  0.42135379  0.31783758     0.99600
C171        C  0.69773630  0.47905393  0.22433670     0.96000
Al172      Al  0.65553545  0.44493643  0.23388561     1.55600
O173        O  0.72739001  0.44138541  0.26948962    -0.75800
C174        C  0.62440559  0.40457885  0.25367612     1.00100
C175        C  0.64815805  0.48596865  0.27261570     0.95000
O176        O  0.66599290  0.47772333  0.28701476    -0.81100
O177        O  0.32265961  0.53142897  0.70364628    -0.80500
C178        C  0.30953876  0.60995896  0.77899500     0.98800
O179        O  0.32613517  0.59204964  0.77997521    -0.69700
O180        O  0.30724710  0.54539311  0.77549341    -0.73200
Al181      Al  0.33345652  0.56344275  0.75725894     1.49000
C182        C  0.29159640  0.52907897  0.76668640     0.94100
O183        O  0.26135650  0.56728961  0.72268120    -0.79500
O184        O  0.31978395  0.60280090  0.68925887    -0.73000
Al185      Al  0.29332884  0.55091002  0.71420957     1.90100
O186        O  0.27390784  0.60699608  0.71508116    -0.72100
O187        O  0.34453051  0.61653695  0.73197503    -0.71900
O188        O  0.29862553  0.61599516  0.75809417    -0.77600
O189        O  0.36307704  0.58014073  0.74296008    -0.75800
O190        O  0.31223074  0.57385937  0.73189675    -1.11900
O191        O  0.34471691  0.53249849  0.73997217    -0.71100
C192        C  0.34036142  0.52276223  0.71800432     0.99600
C193        C  0.25619910  0.59066832  0.71824674     0.96000
Al194      Al  0.30954949  0.60752853  0.72429274     1.55600
O195        O  0.28691712  0.52790039  0.74278291    -0.75800
C196        C  0.36454766  0.60370646  0.73707743     1.00100
C197        C  0.30820130  0.58820939  0.67355647     0.95000
O198        O  0.29540134  0.56894000  0.68148293    -0.81100
O199        O  0.43198816  0.31873401  0.69689936    -0.80500
C200        C  0.38818661  0.22248223  0.68075309     0.98800
O201        O  0.38283353  0.24315919  0.69239393    -0.69700
O202        O  0.39304792  0.28542375  0.71811214    -0.73200
Al203      Al  0.39215985  0.27706346  0.68221304     1.49000
C204        C  0.40940726  0.28149601  0.73567453     0.94100
O205        O  0.47130413  0.25627962  0.70437109    -0.79500
O206        O  0.46671763  0.26065710  0.64635244    -0.73000
Al207      Al  0.44908517  0.28555014  0.69845489     1.90100
O208        O  0.45293987  0.22460179  0.68322525    -0.72100
O209        O  0.41887441  0.25909266  0.62808649    -0.71900
O210        O  0.40617928  0.22154754  0.66422754    -0.77600
O211        O  0.38281961  0.27032765  0.64708524    -0.75800
O212        O  0.42562515  0.26881665  0.67924136    -1.11900
O213        O  0.39775273  0.31215420  0.67263509    -0.71100
C214        C  0.41299353  0.32731571  0.68410099     0.99600
C215        C  0.46933412  0.23254581  0.69925872     0.96000
Al216      Al  0.43535647  0.24378740  0.65738872     1.55600
O217        O  0.43266220  0.27685520  0.73029742    -0.75800
C218        C  0.39535062  0.26519004  0.62688489     1.00100
C219        C  0.47688275  0.28232370  0.65117370     0.95000
O220        O  0.46868414  0.29627631  0.66934298    -0.81100
O221        O  0.51828285  0.71105468  0.31965606    -0.80500
C222        C  0.59790524  0.78527702  0.30645423     0.98800
O223        O  0.57935852  0.78699813  0.32229481    -0.69700
O224        O  0.53316140  0.78241636  0.30230642    -0.73200
Al225      Al  0.55021801  0.76483173  0.32954096     1.49000
C226        C  0.51671888  0.77332146  0.28697469     0.94100
O227        O  0.55521449  0.72876893  0.25862168    -0.79500
O228        O  0.58868791  0.69605068  0.31896475    -0.73000
Al229      Al  0.53810892  0.72091044  0.29039496     1.90100
O230        O  0.59448862  0.72066006  0.27233587    -0.72100
O231        O  0.60254279  0.73914903  0.34283120    -0.71900
O232        O  0.60385093  0.76402327  0.29625900    -0.77600
O233        O  0.56589622  0.75132604  0.36003026    -0.75800
O234        O  0.56082639  0.73881805  0.30936855    -1.11900
O235        O  0.51879875  0.74804074  0.34057049    -0.71100
C236        C  0.50935223  0.72582199  0.33683394     0.99600
C237        C  0.57867982  0.72405551  0.25414269     0.96000
Al238      Al  0.59437512  0.73066455  0.30782524     1.55600
O239        O  0.51527451  0.74934059  0.28303028    -0.75800
C240        C  0.58932294  0.74526437  0.36230128     1.00100
C241        C  0.57421659  0.68028293  0.30734305     0.95000
O242        O  0.55571012  0.68814581  0.29344674    -0.81100
O243        O  0.30808449  0.70168399  0.42933974    -0.80500
C244        C  0.21049727  0.68677838  0.38828973     0.98800
O245        O  0.23109896  0.69819019  0.38212581    -0.69700
O246        O  0.27444880  0.72316146  0.39013817    -0.73200
Al247      Al  0.26507843  0.68745198  0.39061721     1.49000
C248        C  0.27147931  0.74120330  0.40612412     0.94100
O249        O  0.24649451  0.71232341  0.46925164    -0.79500
O250        O  0.24985874  0.65373234  0.46674053    -0.73000
Al251      Al  0.27534573  0.70492006  0.44697439     1.90100
O252        O  0.21423274  0.69055502  0.45261889    -0.72100
O253        O  0.24734779  0.63423334  0.41929777    -0.71900
O254        O  0.20998178  0.67043115  0.40648105    -0.77600
O255        O  0.25721376  0.65230166  0.38231187    -0.75800
O256        O  0.25775713  0.68539066  0.42444251    -1.11900
O257        O  0.30003071  0.67719586  0.39552020    -0.71100
C258        C  0.31582909  0.68830124  0.41039362     0.99600
C259        C  0.22269354  0.70720985  0.46810569     0.96000
Al260      Al  0.23269878  0.66409574  0.43534010     1.55600
O261        O  0.26730955  0.73645383  0.42962035    -0.75800
C262        C  0.25238045  0.63244242  0.39552949     1.00100
C263        C  0.27150493  0.65877657  0.47679330     0.95000
O264        O  0.28567842  0.67638520  0.46776339    -0.81100
O265        O  0.80592630  0.56069200  0.80628193    -0.80500
C266        C  0.80923649  0.60512111  0.70560026     0.98800
O267        O  0.81158703  0.61706045  0.72671841    -0.69700
O268        O  0.77311983  0.60769431  0.75777322    -0.73200
Al269      Al  0.80925068  0.60589412  0.76207474     1.49000
C270        C  0.75644084  0.59380760  0.76865448     0.94100
O271        O  0.77443279  0.53604319  0.74455545    -0.79500
O272        O  0.84968103  0.53814238  0.75140946    -0.73000
Al273      Al  0.79162488  0.54981349  0.77405936     1.90100
O274        O  0.80807404  0.53289272  0.71904680    -0.72100
O275        O  0.85729930  0.58562705  0.73348951    -0.71900
O276        O  0.81294987  0.58110748  0.70432714    -0.77600
O277        O  0.84552336  0.60859950  0.76707666    -0.75800
O278        O  0.81045478  0.57202927  0.75531716    -1.11900
O279        O  0.80600873  0.60243743  0.79890451    -0.71100
C280        C  0.80677191  0.58362261  0.81442306     0.99600
C281        C  0.78509553  0.52716240  0.72457740     0.96000
Al282      Al  0.83031267  0.56047892  0.72941022     1.55600
O283        O  0.76223766  0.57211844  0.77819605    -0.75800
C284        C  0.86226050  0.60223764  0.75060312     1.00100
C285        C  0.84016952  0.52121679  0.76620466     0.95000
O286        O  0.81702988  0.52269405  0.77385951    -0.81100
O287        O  0.96950131  0.29536967  0.82075563    -0.80500
C288        C  0.88790775  0.22402821  0.80549523     0.98800
O289        O  0.90553236  0.22196285  0.82227821    -0.69700
O290        O  0.95248385  0.22432779  0.80382140    -0.73200
Al291      Al  0.93514076  0.24301467  0.83016693     1.49000
C292        C  0.96974781  0.23257510  0.78885433     0.94100
O293        O  0.93466539  0.27815660  0.75850918    -0.79500
O294        O  0.89968472  0.31294128  0.81659024    -0.73000
Al295      Al  0.95057919  0.28584676  0.79084198     1.90100
O296        O  0.89509093  0.28775589  0.77021542    -0.72100
O297        O  0.88328785  0.27082106  0.84086519    -0.71900
O298        O  0.88315737  0.24525807  0.79460364    -0.77600
O299        O  0.91875763  0.25766503  0.85980460    -0.75800
O300        O  0.92639251  0.26909570  0.80911450    -1.11900
O301        O  0.96676085  0.25861085  0.84202806    -0.71100
C302        C  0.97726236  0.28035710  0.83833767     0.99600
C303        C  0.91163168  0.28360082  0.75284191     0.96000
Al304      Al  0.89326750  0.27839889  0.80594364     1.55600
O305        O  0.97251068  0.25645151  0.78489316    -0.75800
C306        C  0.89546472  0.26459557  0.86102789     1.00100
C307        C  0.91513303  0.32797815  0.80521439     0.95000
O308        O  0.93407783  0.31926141  0.79249280    -0.81100
O309        O  0.78609165  0.67549933  0.01743359    -0.80500
C310        C  0.71433998  0.68776956  0.09956451     0.98800
O311        O  0.71197142  0.67233800  0.08077787    -0.69700
O312        O  0.71554247  0.69261787  0.03447859    -0.73200
Al313      Al  0.73333258  0.66511154  0.05110209     1.49000
C314        C  0.72429387  0.70869122  0.01848870     0.94100
O315        O  0.77047774  0.73577453  0.05665247    -0.79500
O316        O  0.80306285  0.67431812  0.08806311    -0.73000
Al317      Al  0.77726922  0.70428166  0.03851866     1.90100
O318        O  0.77943802  0.72128543  0.09544944    -0.72100
O319        O  0.75992503  0.65084443  0.10286517    -0.71900
O320        O  0.73583248  0.69762463  0.10522648    -0.77600
O321        O  0.74670175  0.63421341  0.06637016    -0.75800
O322        O  0.75977924  0.68495304  0.06137158    -1.11900
O323        O  0.74935583  0.65423653  0.01923505    -0.71100
C324        C  0.77114326  0.65827180  0.00891736     0.99600
C325        C  0.77584854  0.73984457  0.08007266     0.96000
Al326      Al  0.76878555  0.68584022  0.09482499     1.55600
O327        O  0.74824562  0.71276539  0.01680443    -0.75800
C328        C  0.75312427  0.63159703  0.08971027     1.00100
C329        C  0.81860178  0.68585523  0.07321484     0.95000
O330        O  0.81046235  0.70013629  0.05507943    -0.81100
O331        O  0.16560003  0.47647677  0.20148163    -0.80500
C332        C  0.17510915  0.39589965  0.27554815     0.98800
O333        O  0.15870522  0.41400376  0.27627973    -0.69700
O334        O  0.17819704  0.46058245  0.27345476    -0.73200
Al335      Al  0.15249530  0.44325830  0.25391438     1.49000
C336        C  0.19436912  0.47689273  0.26556510     0.94100
O337        O  0.22581034  0.43936922  0.22171164    -0.79500
O338        O  0.16808548  0.40554112  0.18564326    -0.73000
Al339      Al  0.19430063  0.45638392  0.21258448     1.90100
O340        O  0.21309632  0.40000467  0.21292309    -0.72100
O341        O  0.14172307  0.39095907  0.22710814    -0.71900
O342        O  0.18667788  0.39020861  0.25490512    -0.77600
O343        O  0.12322847  0.42729015  0.23821514    -0.75800
O344        O  0.17452780  0.43322205  0.22911404    -1.11900
O345        O  0.14212868  0.47471375  0.23688224    -0.71100
C346        C  0.14734496  0.48485825  0.21525478     0.99600
C347        C  0.23088436  0.41602046  0.21707828     0.96000
Al348      Al  0.17708134  0.39972074  0.22087453     1.55600
O349        O  0.20000161  0.47853240  0.24188643    -0.75800
C350        C  0.12168359  0.40390663  0.23177948     1.00100
C351        C  0.18002693  0.42060929  0.17061769     0.95000
O352        O  0.19300290  0.43935382  0.17937288    -0.81100
O353        O  0.05474177  0.68675326  0.19361448    -0.80500
C354        C  0.09700472  0.78416921  0.18452887     0.98800
O355        O  0.10254895  0.76284257  0.19490001    -0.69700
O356        O  0.09255199  0.71875200  0.21757329    -0.73200
Al357      Al  0.09419007  0.72962465  0.18227094     1.49000
C358        C  0.07582913  0.72166323  0.23499381     0.94100
O359        O  0.01421516  0.74808336  0.20369788    -0.79500
O360        O  0.02057839  0.74685471  0.14519453    -0.73000
Al361      Al  0.03705583  0.71949973  0.19668769     1.90100
O362        O  0.03237926  0.78104294  0.18433251    -0.72100
O363        O  0.06876630  0.75049036  0.12860405    -0.71900
O364        O  0.07962645  0.78589596  0.16740487    -0.77600
O365        O  0.10453769  0.73888370  0.14784495    -0.75800
O366        O  0.06068314  0.73759896  0.17893037    -1.11900
O367        O  0.08929346  0.69523932  0.17030633    -0.71100
C368        C  0.07404657  0.67922824  0.18062121     0.99600
C369        C  0.01581087  0.77206917  0.19963493     0.96000
Al370      Al  0.05115100  0.76367876  0.15819225     1.55600
O371        O  0.05268150  0.72656456  0.22934848    -0.75800
C372        C  0.09239939  0.74488258  0.12761177     1.00100
C373        C  0.01060780  0.72482987  0.14870090     0.95000
O374        O  0.01827704  0.71019130  0.16661107    -0.81100
O375        O  0.17914432  0.31268467  0.93702348    -0.80500
C376        C  0.27870979  0.32074682  0.89161190     0.98800
O377        O  0.25741265  0.32172457  0.87979263    -0.69700
O378        O  0.22776105  0.28227325  0.88920689    -0.73200
Al379      Al  0.22235384  0.31828433  0.89111484     1.49000
C380        C  0.21811598  0.26505270  0.90334891     0.94100
O381        O  0.24277706  0.28427463  0.96095012    -0.79500
O382        O  0.23144295  0.35931405  0.95858002    -0.73000
Al383      Al  0.21212740  0.29997821  0.94752117     1.90100
O384        O  0.26611467  0.31937237  0.96416337    -0.72100
O385        O  0.24913656  0.36754981  0.91087321    -0.71900
O386        O  0.28006622  0.32473157  0.91561135    -0.77600
O387        O  0.21610848  0.35438107  0.88799862    -0.75800
O388        O  0.22947701  0.31976678  0.92497354    -1.11900
O389        O  0.18585442  0.31404845  0.89511358    -0.71100
C390        C  0.17069290  0.31403186  0.91419328     0.99600
C391        C  0.26219936  0.29599501  0.96972843     0.96000
Al392      Al  0.25438430  0.34093371  0.93630835     1.55600
O393        O  0.20907859  0.27035144  0.92536087    -0.75800
C394        C  0.23214084  0.37164953  0.89389467     1.00100
C395        C  0.21742524  0.34905868  0.97575282     0.95000
O396        O  0.21133051  0.32543710  0.97460845    -0.81100
O397        O  0.55675296  0.82134192  0.79604446    -0.80500
C398        C  0.59876758  0.72392178  0.80672935     0.98800
O399        O  0.60408816  0.74487525  0.79557911    -0.69700
O400        O  0.59459951  0.78865470  0.77225725    -0.73200
Al401      Al  0.59596341  0.77825858  0.80771911     1.49000
C402        C  0.57786112  0.78582876  0.75485159     0.94100
O403        O  0.51622028  0.76023235  0.78617188    -0.79500
O404        O  0.52161765  0.76163776  0.84418394    -0.73000
Al405      Al  0.53894349  0.78879108  0.79308393     1.90100
O406        O  0.53450713  0.72727724  0.80560133    -0.72100
O407        O  0.56980198  0.75884940  0.86163090    -0.71900
O408        O  0.58138526  0.72265672  0.82386736    -0.77600
O409        O  0.60591919  0.76944080  0.84235034    -0.75800
O410        O  0.56240236  0.77069670  0.81104704    -1.11900
O411        O  0.59135462  0.81267335  0.81923582    -0.71100
C412        C  0.57616550  0.82870190  0.80891748     0.99600
C413        C  0.51806095  0.73624009  0.79010739     0.96000
Al414      Al  0.55264319  0.74494172  0.83201666     1.55600
O415        O  0.55463556  0.78143320  0.76052476    -0.75800
C416        C  0.59350495  0.76428089  0.86265860     1.00100
C417        C  0.51167266  0.78365684  0.84053782     0.95000
O418        O  0.51993914  0.79842852  0.82301040    -0.81100
O419        O  0.28493567  0.83147989  0.97018627    -0.80500
C420        C  0.21225827  0.82016590  0.88851742     0.98800
O421        O  0.21059543  0.83607227  0.90697349    -0.69700
O422        O  0.21355344  0.81568867  0.95332942    -0.73200
Al423      Al  0.23223701  0.84254416  0.93669437     1.49000
C424        C  0.22188102  0.80000564  0.96994887     0.94100
O425        O  0.26705127  0.77090051  0.93299129    -0.79500
O426        O  0.30167733  0.82982473  0.89959582    -0.73000
Al427      Al  0.27504270  0.80246013  0.95007788     1.90100
O428        O  0.27575101  0.78395515  0.89357571    -0.72100
O429        O  0.25966249  0.85511847  0.88495035    -0.71900
O430        O  0.23334907  0.80932551  0.88311789    -0.77600
O431        O  0.24697138  0.87264769  0.92130301    -0.75800
O432        O  0.25805503  0.82171616  0.92676762    -1.11900
O433        O  0.24834176  0.85303837  0.96862192    -0.71100
C434        C  0.27015933  0.84881489  0.97879178     0.99600
C435        C  0.27178801  0.76604675  0.90961529     0.96000
Al436      Al  0.26685088  0.81980861  0.89333501     1.55600
O437        O  0.24576935  0.79565204  0.97212131    -0.75800
C438        C  0.25386304  0.87476871  0.89804362     1.00100
C439        C  0.31692264  0.81819121  0.91466700     0.95000
O440        O  0.30838137  0.80480583  0.93328753    -0.81100
O441        O  0.66886065  0.03013817  0.78519303    -0.80500
C442        C  0.67680616  0.11024811  0.71080347     0.98800
O443        O  0.66112708  0.09158654  0.70989491    -0.69700
O444        O  0.68211141  0.04569165  0.71294484    -0.73200
Al445      Al  0.65562743  0.06230729  0.73217487     1.49000
C446        C  0.69820552  0.02942269  0.72111839     0.94100
O447        O  0.72813685  0.06781580  0.76436165    -0.79500
O448        O  0.66955993  0.10046914  0.80063845    -0.73000
Al449      Al  0.69721221  0.05034485  0.77389989     1.90100
O450        O  0.71463492  0.10695430  0.77336925    -0.72100
O451        O  0.64305179  0.11428437  0.75898081    -0.71900
O452        O  0.68805349  0.11631294  0.73149637    -0.77600
O453        O  0.62574168  0.07751189  0.74745015    -0.75800
O454        O  0.67702458  0.07298222  0.75716802    -1.11900
O455        O  0.64606613  0.03074419  0.74926932    -0.71100
C456        C  0.65107093  0.02119533  0.77121347     0.99600
C457        C  0.73268279  0.09129005  0.76876661     0.96000
Al458      Al  0.67860189  0.10650138  0.76542927     1.55600
O459        O  0.70334376  0.02781666  0.74490921    -0.75800
C460        C  0.62346874  0.10085817  0.75382509     1.00100
C461        C  0.68203167  0.08588993  0.81571486     0.95000
O462        O  0.69573443  0.06764122  0.80698335    -0.81100
O463        O  0.46866703  0.21118376  0.16601569    -0.80500
C464        C  0.38765958  0.28441596  0.17821377     0.98800
O465        O  0.40642105  0.28639181  0.16264833    -0.69700
O466        O  0.45292650  0.28224113  0.18218448    -0.73200
Al467      Al  0.43563527  0.26437098  0.15521478     1.49000
C468        C  0.46904243  0.27346674  0.19810950     0.94100
O469        O  0.43057508  0.22837212  0.22660916    -0.79500
O470        O  0.39804337  0.19501053  0.16643072    -0.73000
Al471      Al  0.44817372  0.22079042  0.19499634     1.90100
O472        O  0.39148577  0.21994386  0.21272595    -0.72100
O473        O  0.38358165  0.23763585  0.14190832    -0.71900
O474        O  0.38167434  0.26301427  0.18814798    -0.77600
O475        O  0.41980924  0.25086894  0.12470376    -0.75800
O476        O  0.42528869  0.23830379  0.17563750    -1.11900
O477        O  0.46702972  0.24762253  0.14406789    -0.71100
C478        C  0.47708183  0.22573136  0.14832674     0.99600
C479        C  0.40713207  0.22346169  0.23101057     0.96000
Al480      Al  0.39178490  0.22967463  0.17707759     1.55600
O481        O  0.47043184  0.24956105  0.20256298    -0.75800
C482        C  0.39661051  0.24399875  0.12238509     1.00100
C483        C  0.41276814  0.17952025  0.17820321     0.95000
O484        O  0.43119672  0.18774042  0.19194260    -0.81100
O485        O  0.67915654  0.19385104  0.04834176    -0.80500
C486        C  0.77868732  0.18910896  0.09438057     0.98800
O487        O  0.75736523  0.18730018  0.10606047    -0.69700
O488        O  0.72660009  0.22563206  0.09602072    -0.73200
Al489      Al  0.72231213  0.18949400  0.09445517     1.49000
C490        C  0.71720142  0.24259357  0.08139974     0.94100
O491        O  0.74230943  0.22318326  0.02397943    -0.79500
O492        O  0.73336061  0.14804254  0.02760163    -0.73000
Al493      Al  0.71203367  0.20699239  0.03774903     1.90100
O494        O  0.76675746  0.18878050  0.02170126    -0.72100
O495        O  0.75099228  0.14090361  0.07562522    -0.71900
O496        O  0.78042827  0.18482886  0.07045499    -0.77600
O497        O  0.71721198  0.15322074  0.09788624    -0.75800
O498        O  0.72977716  0.18792311  0.06066077    -1.11900
O499        O  0.68570074  0.19257232  0.09023922    -0.71100
C500        C  0.67060073  0.19223839  0.07112664     0.99600
C501        C  0.76208769  0.21183524  0.01547478     0.96000
Al502      Al  0.75550188  0.16740200  0.04981882     1.55600
O503        O  0.70844625  0.23691574  0.05937977    -0.75800
C504        C  0.73388381  0.13638990  0.09240027     1.00100
C505        C  0.71895479  0.15762028  0.01032765     0.95000
O506        O  0.71193680  0.18101028  0.01120609    -0.81100
O507        O  0.30201644  0.94649613  0.18145008    -0.80500
C508        C  0.30984305  0.90406097  0.28259762     0.98800
O509        O  0.31099254  0.89177740  0.26159028    -0.69700
O510        O  0.27130529  0.90057573  0.23200112    -0.73200
Al511      Al  0.30728599  0.90214331  0.22623330     1.49000
C512        C  0.25412739  0.91449157  0.22194131     0.94100
O513        O  0.27387488  0.97285895  0.24416725    -0.79500
O514        O  0.34875589  0.96965137  0.23350790    -0.73000
Al515      Al  0.28942925  0.95818503  0.21410352     1.90100
O516        O  0.30880725  0.97624046  0.26778647    -0.72100
O517        O  0.35669059  0.92234932  0.25239770    -0.71900
O518        O  0.31379297  0.92808033  0.28333872    -0.77600
O519        O  0.34326792  0.89892824  0.21981702    -0.75800
O520        O  0.30899717  0.93614095  0.23230996    -1.11900
O521        O  0.30273894  0.90489696  0.18957819    -0.71100
C522        C  0.30296469  0.92342801  0.17373659     0.99600
C523        C  0.28562870  0.98215077  0.26332930     0.96000
Al524      Al  0.33019326  0.94802530  0.25699221     1.55600
O525        O  0.25957319  0.93609584  0.21197908    -0.75800
C526        C  0.36065196  0.90513099  0.23562370     1.00100
C527        C  0.33869279  0.98638071  0.21880493     0.95000
O528        O  0.31516131  0.98500329  0.21238019    -0.81100
C529        C  0.39207367  0.10366255  0.18499209     0.18300
C530        C  0.36547600  0.09896026  0.18695483    -0.10800
C531        C  0.35637162  0.07417258  0.19290922    -0.11700
C532        C  0.37372601  0.05375232  0.19699689     0.19900
C533        C  0.40037071  0.05836983  0.19493270    -0.13700
C534        C  0.40950427  0.08323764  0.18896476    -0.12000
C535        C  0.36392665  0.02840570  0.20385363     0.00800
C536        C  0.35366073  0.00833377  0.21020677    -0.32000
C537        C  0.40120411  0.12968680  0.18008198     0.02200
C538        C  0.40732053  0.15216229  0.17774849    -0.33700
H539        H  0.35176646  0.11452561  0.18414946     0.13200
H540        H  0.33574604  0.07098133  0.19454216     0.13100
H541        H  0.41404581  0.04285622  0.19813774     0.12900
H542        H  0.43012731  0.08657937  0.18771371     0.12000
C543        C  0.54486568  0.20735551  0.11186124     0.18300
C544        C  0.54985636  0.18474218  0.09773060    -0.10800
C545        C  0.57467071  0.18001524  0.08771983    -0.11700
C546        C  0.59467328  0.19786804  0.09177138     0.19900
C547        C  0.58958032  0.22046131  0.10580844    -0.13700
C548        C  0.56486496  0.22516874  0.11577890    -0.12000
C549        C  0.62058726  0.19316832  0.08215253     0.00800
C550        C  0.64308584  0.19139984  0.07586482    -0.32000
C551        C  0.51958424  0.21229971  0.12292761     0.02200
C552        C  0.49946988  0.21779690  0.13361118    -0.33700
H553        H  0.53465791  0.17073033  0.09459158     0.13200
H554        H  0.57827277  0.16242810  0.07698827     0.13100
H555        H  0.60479118  0.23441079  0.10919058     0.12900
H556        H  0.56139582  0.24267035  0.12670494     0.12000
C557        C  0.69967297  0.12102448  0.94308886     0.18300
C558        C  0.71917390  0.10944809  0.92825534    -0.10800
C559        C  0.71396464  0.10090814  0.90307409    -0.11700
C560        C  0.68920174  0.10386669  0.89243622     0.19900
C561        C  0.66958194  0.11508843  0.90740701    -0.13700
C562        C  0.67479603  0.12363408  0.93261535    -0.12000
C563        C  0.68441471  0.09644295  0.86584382     0.00800
C564        C  0.68208921  0.09108001  0.84316067    -0.32000
C565        C  0.70561549  0.13162597  0.96831015     0.02200
C566        C  0.71129629  0.14226097  0.98836103    -0.33700
H567        H  0.73853093  0.10745273  0.93597123     0.13200
H568        H  0.72936646  0.09240071  0.89174301     0.13100
H569        H  0.65038721  0.11763119  0.89945470     0.12900
H570        H  0.65956628  0.13269620  0.94374285     0.12000
C571        C  0.28761772  0.88392649  0.04739023     0.18300
C572        C  0.31292204  0.88621742  0.05683485    -0.10800
C573        C  0.31736956  0.89556731  0.08190455    -0.11700
C574        C  0.29653979  0.90270082  0.09773256     0.19900
C575        C  0.27126684  0.90052270  0.08821276    -0.13700
C576        C  0.26682707  0.89118986  0.06318341    -0.12000
C577        C  0.30085936  0.91146475  0.12396901     0.00800
C578        C  0.30296119  0.91779126  0.14640797    -0.32000
C579        C  0.28278274  0.87320400  0.02199741     0.02200
C580        C  0.27765047  0.86300734  0.00157994    -0.33700
H581        H  0.32918548  0.88052961  0.04493795     0.13200
H582        H  0.33698688  0.89699371  0.08901162     0.13100
H583        H  0.25495710  0.90580704  0.10023773     0.12900
H584        H  0.24717395  0.88938137  0.05625425     0.12000
C585        C  0.61621667  0.95361721  0.79156309     0.18300
C586        C  0.61214830  0.94595409  0.81727001    -0.10800
C587        C  0.60272626  0.92117273  0.82277332    -0.11700
C588        C  0.59734670  0.90396564  0.80258222     0.19900
C589        C  0.60128384  0.91171291  0.77689399    -0.13700
C590        C  0.61068774  0.93644080  0.77140331    -0.12000
C591        C  0.58855728  0.87808120  0.80793868     0.00800
C592        C  0.58215464  0.85576190  0.81002810    -0.32000
C593        C  0.62695735  0.97865670  0.78575826     0.02200
C594        C  0.63713751  0.99877164  0.77978821    -0.33700
H595        H  0.61649996  0.95900879  0.83302256     0.13200
H596        H  0.59988469  0.91536523  0.84270731     0.13100
H597        H  0.59732532  0.89854470  0.76112462     0.12900
H598        H  0.61389799  0.94206652  0.75146692     0.12000
C599        C  0.39296821  0.81192035  0.89410606     0.18300
C600        C  0.39692809  0.79522967  0.87314393    -0.10800
C601        C  0.42193049  0.79033529  0.86401072    -0.11700
C602        C  0.44335488  0.80204146  0.87571228     0.19900
C603        C  0.43947885  0.81876914  0.89671494    -0.13700
C604        C  0.41437861  0.82367893  0.90588774    -0.12000
C605        C  0.46905193  0.79685434  0.86577538     0.00800
C606        C  0.48938200  0.79139259  0.85549380    -0.32000
C607        C  0.36689689  0.81657449  0.90332797     0.02200
C608        C  0.34437111  0.81859482  0.90945341    -0.33700
H609        H  0.38065103  0.78596298  0.86383477     0.13200
H610        H  0.42454812  0.77740621  0.84776538     0.13100
H611        H  0.45580090  0.82800714  0.90596229     0.12900
H612        H  0.41168638  0.83660022  0.92211854     0.12000
C613        C  0.35258317  0.25188689  0.05739435     0.18300
C614        C  0.35960275  0.26730428  0.03618168    -0.10800
C615        C  0.34121303  0.27394531  0.01735603    -0.11700
C616        C  0.31561816  0.26527161  0.01955696     0.19900
C617        C  0.30877850  0.24930035  0.04040259    -0.13700
C618        C  0.32716240  0.24265008  0.05920970    -0.12000
C619        C  0.29615774  0.27400649  0.00134083     0.00800
C620        C  0.28020536  0.28296164  0.98668150    -0.32000
C621        C  0.37067928  0.24723044  0.07831647     0.02200
C622        C  0.38397355  0.24479924  0.09746958    -0.33700
H623        H  0.37908198  0.27473824  0.03454182     0.13200
H624        H  0.34680951  0.28636675  0.00142489     0.13100
H625        H  0.28910675  0.24250294  0.04246229     0.12900
H626        H  0.32136341  0.23085685  0.07554211     0.12000
C627        C  0.18481065  0.87853696  0.21394065     0.18300
C628        C  0.17420915  0.87702071  0.18905331    -0.10800
C629        C  0.15394211  0.85989988  0.18396370    -0.11700
C630        C  0.14413972  0.84414464  0.20371956     0.19900
C631        C  0.15421287  0.84618544  0.22880899    -0.13700
C632        C  0.17450829  0.86333048  0.23390599    -0.12000
C633        C  0.12538672  0.82446023  0.19767930     0.00800
C634        C  0.11146611  0.80670509  0.19181917    -0.32000
C635        C  0.20764307  0.89389692  0.21830550     0.02200
C636        C  0.22817502  0.90470276  0.22065762    -0.33700
H637        H  0.18213575  0.88849104  0.17340117     0.13200
H638        H  0.14646495  0.85837647  0.16446169     0.13100
H639        H  0.14693241  0.83398073  0.24421805     0.12900
H640        H  0.18266600  0.86414909  0.25317652     0.12000
C641        C  0.13647944  0.75635628  0.06285589     0.18300
C642        C  0.16183704  0.74675738  0.06242551    -0.10800
C643        C  0.17880635  0.75378299  0.04245559    -0.11700
C644        C  0.17061168  0.77050835  0.02270838     0.19900
C645        C  0.14513636  0.77980145  0.02291801    -0.13700
C646        C  0.12816405  0.77277597  0.04289330    -0.12000
C647        C  0.18864810  0.77917523  0.00306448     0.00800
C648        C  0.20387479  0.78777239  0.98746352    -0.32000
C649        C  0.11953260  0.75046222  0.08442255     0.02200
C650        C  0.10631825  0.74685639  0.10344964    -0.33700
H651        H  0.16863457  0.73419057  0.07776232     0.13200
H652        H  0.19843793  0.74653501  0.04267032     0.13100
H653        H  0.13852434  0.79283836  0.00789544     0.12900
H654        H  0.10871189  0.78049544  0.04299739     0.12000
C655        C  0.18661859  0.40147850  0.09410062     0.18300
C656        C  0.20030708  0.41712819  0.07663878    -0.10800
C657        C  0.20533951  0.40842005  0.05143201    -0.11700
C658        C  0.19673755  0.38399144  0.04347839     0.19900
C659        C  0.18283448  0.36849502  0.06086777    -0.13700
C660        C  0.17781537  0.37718511  0.08602891    -0.12000
C661        C  0.20317461  0.37412641  0.01806730     0.00800
C662        C  0.20922035  0.36391997  0.99788845    -0.32000
C663        C  0.18257013  0.40971643  0.12057362     0.02200
C664        C  0.18033578  0.41540526  0.14318418    -0.33700
H665        H  0.20738909  0.43586844  0.08260668     0.13200
H666        H  0.21625318  0.42056276  0.03830029     0.13100
H667        H  0.17620871  0.34952225  0.05510336     0.12900
H668        H  0.16737238  0.36478697  0.09930856     0.12000
C669        C  0.09372879  0.60287361  0.18447179     0.18300
C670        C  0.11383779  0.59248456  0.16957571    -0.10800
C671        C  0.12300911  0.56746932  0.17457093    -0.11700
C672        C  0.11215843  0.55260367  0.19451622     0.19900
C673        C  0.09179068  0.56285213  0.20917085    -0.13700
C674        C  0.08261515  0.58786974  0.20417232    -0.12000
C675        C  0.12283524  0.52748514  0.20077709     0.00800
C676        C  0.13311247  0.50733440  0.20682034    -0.32000
C677        C  0.08555937  0.62936542  0.18063090     0.02200
C678        C  0.07970011  0.65197178  0.17922953    -0.33700
H679        H  0.12275147  0.60388771  0.15441843     0.13200
H680        H  0.13885516  0.55990612  0.16319063     0.13100
H681        H  0.08330988  0.55169091  0.22475315     0.12900
H682        H  0.06719982  0.59567778  0.21597226     0.12000
C683        C  0.33906292  0.34427501  0.19535031     0.18300
C684        C  0.32422932  0.35501232  0.17536199    -0.10800
C685        C  0.30458742  0.37274254  0.18097180    -0.11700
C686        C  0.29958976  0.37992686  0.20662047     0.19900
C687        C  0.31475136  0.36959882  0.22660922    -0.13700
C688        C  0.33444100  0.35184003  0.22098668    -0.12000
C689        C  0.27751550  0.39604229  0.21235335     0.00800
C690        C  0.25716161  0.40704302  0.21556718    -0.32000
C691        C  0.35788335  0.32444778  0.18958484     0.02200
C692        C  0.37227378  0.30678955  0.18436479    -0.33700
H693        H  0.32745413  0.34923525  0.15549538     0.13200
H694        H  0.29285816  0.38034656  0.16535544     0.13100
H695        H  0.31094319  0.37476125  0.24654051     0.12900
H696        H  0.34564374  0.34358210  0.23665522     0.12000
C697        C  0.94436615  0.70474794  0.11082508     0.18300
C698        C  0.93909810  0.68013853  0.10073885    -0.10800
C699        C  0.91427684  0.67418500  0.09152428    -0.11700
C700        C  0.89456877  0.69280821  0.09237163     0.19900
C701        C  0.89999521  0.71745931  0.10214836    -0.13700
C702        C  0.92472228  0.72339032  0.11132406    -0.12000
C703        C  0.86855870  0.68685210  0.08397446     0.00800
C704        C  0.84598913  0.68459635  0.07826749    -0.32000
C705        C  0.96936439  0.71073469  0.12187000     0.02200
C706        C  0.98905060  0.71678680  0.13295633    -0.33700
H707        H  0.95403639  0.66547587  0.10033108     0.13200
H708        H  0.91039558  0.65504367  0.08406593     0.13100
H709        H  0.88498788  0.73204100  0.10297935     0.12900
H710        H  0.92841789  0.74242403  0.11915936     0.12000
C711        C  0.63912286  0.75459194  0.92643005     0.18300
C712        C  0.66539691  0.75097421  0.92080815    -0.10800
C713        C  0.68274772  0.74380415  0.94037255    -0.11700
C714        C  0.67405375  0.74016757  0.96581155     0.19900
C715        C  0.64786315  0.74427621  0.97157105    -0.13700
C716        C  0.63047947  0.75145567  0.95197032    -0.12000
C717        C  0.69175693  0.73093486  0.98553356     0.00800
C718        C  0.70668202  0.72173144  0.00110718    -0.32000
C719        C  0.62106350  0.76010325  0.90567813     0.02200
C720        C  0.60730384  0.76307657  0.88693279    -0.33700
H721        H  0.67239409  0.75320534  0.90118833     0.13200
H722        H  0.70286585  0.74061765  0.93554873     0.13100
H723        H  0.64079160  0.74146013  0.99108590     0.12900
H724        H  0.61024832  0.75407017  0.95664346     0.12000
C725        C  0.09476044  0.30698339  0.89449324     0.18300
C726        C  0.07690797  0.32724682  0.89209083    -0.10800
C727        C  0.05203413  0.32246051  0.88246765    -0.11700
C728        C  0.04485219  0.29737595  0.87519023     0.19900
C729        C  0.06266649  0.27711862  0.87774469    -0.13700
C730        C  0.08749272  0.28189519  0.88735081    -0.12000
C731        C  0.01968416  0.29246489  0.86412643     0.00800
C732        C  0.99954336  0.28747566  0.85340066    -0.32000
C733        C  0.12080278  0.31182260  0.90338088     0.02200
C734        C  0.14326483  0.31410866  0.90940799    -0.33700
H735        H  0.08228863  0.34675378  0.89738866     0.13200
H736        H  0.03853632  0.33832738  0.88044085     0.13100
H737        H  0.05746317  0.25767324  0.87203963     0.12900
H738        H  0.10110827  0.26607504  0.88894833     0.12000
C739        C  0.80068730  0.12838340  0.77741124     0.18300
C740        C  0.81581781  0.13843805  0.75728621    -0.10800
C741        C  0.83526064  0.15644339  0.76269889    -0.11700
C742        C  0.83957354  0.16446043  0.78822825     0.19900
C743        C  0.82472795  0.15404864  0.80833727    -0.13700
C744        C  0.80535287  0.13607958  0.80294245    -0.12000
C745        C  0.85816106  0.18436083  0.79379504     0.00800
C746        C  0.87243398  0.20197417  0.79907554    -0.32000
C747        C  0.77891367  0.11199540  0.77197622     0.02200
C748        C  0.75869495  0.10075207  0.76942801    -0.33700
H749        H  0.81218859  0.13285408  0.73744051     0.13200
H750        H  0.84651922  0.16450692  0.74697205     0.13100
H751        H  0.82775836  0.16023384  0.82810796     0.12900
H752        H  0.79357629  0.12866817  0.81861475     0.12000
C753        C  0.81353518  0.24202036  0.96331055     0.18300
C754        C  0.84013640  0.24134672  0.96860027    -0.10800
C755        C  0.85811165  0.24803032  0.94936651    -0.11700
C756        C  0.84964513  0.25546401  0.92466135     0.19900
C757        C  0.82305112  0.25644181  0.91951685    -0.13700
C758        C  0.80510963  0.24976342  0.93871255    -0.12000
C759        C  0.86798647  0.26076466  0.90410847     0.00800
C760        C  0.88175412  0.26369433  0.88536340    -0.32000
C761        C  0.79496141  0.23353037  0.98255010     0.02200
C762        C  0.77956016  0.22482260  0.99793305    -0.33700
H763        H  0.84699632  0.23525199  0.98744229     0.13200
H764        H  0.87856717  0.24699328  0.95363244     0.13100
H765        H  0.81617574  0.26196030  0.90050186     0.12900
H766        H  0.78467889  0.25023336  0.93422807     0.12000
C767        C  0.79986510  0.60307846  0.89078632     0.18300
C768        C  0.81949133  0.61504356  0.90512606    -0.10800
C769        C  0.81443267  0.62449872  0.93005208    -0.11700
C770        C  0.78968790  0.62209809  0.94089614     0.19900
C771        C  0.77015553  0.60984752  0.92667270    -0.13700
C772        C  0.77521070  0.60039845  0.90176396    -0.12000
C773        C  0.78398784  0.63324686  0.96599046     0.00800
C774        C  0.77854402  0.64380341  0.98618865    -0.32000
C775        C  0.80456125  0.59464657  0.86445226     0.02200
C776        C  0.80692299  0.58874439  0.84189398    -0.33700
H777        H  0.83859180  0.61741267  0.89690229     0.13200
H778        H  0.82970511  0.63402575  0.94069297     0.13100
H779        H  0.75090519  0.60795076  0.93467211     0.12900
H780        H  0.75978455  0.59135262  0.89092006     0.12000
C781        C  0.87614242  0.45333829  0.78424035     0.18300
C782        C  0.86627317  0.43176157  0.77121544    -0.10800
C783        C  0.87551209  0.40697161  0.77693244    -0.11700
C784        C  0.89470134  0.40347618  0.79575697     0.19900
C785        C  0.90475532  0.42505740  0.80866722    -0.13700
C786        C  0.89549036  0.44991076  0.80293724    -0.12000
C787        C  0.90375785  0.37768270  0.80168405     0.00800
C788        C  0.90987920  0.35532781  0.80480642    -0.32000
C789        C  0.86578651  0.47873586  0.77875635     0.02200
C790        C  0.85528761  0.49896869  0.77350042    -0.33700
H791        H  0.85129231  0.43407994  0.75676687     0.13200
H792        H  0.86757976  0.39050352  0.76676641     0.13100
H793        H  0.91960885  0.42266874  0.82322522     0.12900
H794        H  0.90326495  0.46638858  0.81319441     0.12000
C795        C  0.64738955  0.66460570  0.79000366     0.18300
C796        C  0.65462097  0.65938172  0.76441866    -0.10800
C797        C  0.67493248  0.64227403  0.75934077    -0.11700
C798        C  0.68806464  0.63033123  0.77982859     0.19900
C799        C  0.68054871  0.63524563  0.80538208    -0.13700
C800        C  0.66025467  0.65233509  0.81045494    -0.12000
C801        C  0.71049159  0.61469704  0.77481568     0.00800
C802        C  0.73073770  0.60371746  0.77141867    -0.32000
C803        C  0.62809693  0.68387439  0.79541466     0.02200
C804        C  0.61363347  0.70140722  0.80047077    -0.33700
H805        H  0.64497465  0.66896419  0.74846580     0.13200
H806        H  0.68078152  0.63883687  0.73952426     0.13100
H807        H  0.69076292  0.62634955  0.82137950     0.12900
H808        H  0.65499615  0.65643565  0.83031107     0.12000
C809        C  0.14761631  0.70043453  0.34264682     0.18300
C810        C  0.13803846  0.67999662  0.32773252    -0.10800
C811        C  0.11954760  0.68467711  0.30854255    -0.11700
C812        C  0.11047027  0.70983216  0.30414595     0.19900
C813        C  0.11943087  0.73015371  0.31961680    -0.13700
C814        C  0.13793904  0.72546625  0.33883401    -0.12000
C815        C  0.09429761  0.71506484  0.28201402     0.00800
C816        C  0.08380485  0.71870611  0.26146669    -0.32000
C817        C  0.16865453  0.69597004  0.36041080     0.02200
C818        C  0.18734487  0.69193519  0.37380303    -0.33700
H819        H  0.14545221  0.66058493  0.33038477     0.13200
H820        H  0.11300294  0.66884306  0.29655177     0.13100
H821        H  0.11278328  0.74972805  0.31624491     0.12900
H822        H  0.14527347  0.74145417  0.35013830     0.12000
C823        C  0.23964186  0.56876831  0.35117092     0.18300
C824        C  0.23642058  0.54327015  0.35983410    -0.10800
C825        C  0.22837936  0.52394126  0.34261419    -0.11700
C826        C  0.22348071  0.52995129  0.31658787     0.19900
C827        C  0.22688769  0.55540700  0.30791471    -0.13700
C828        C  0.23492106  0.57470147  0.32510332    -0.12000
C829        C  0.21434322  0.51029351  0.29890006     0.00800
C830        C  0.20587560  0.49458723  0.28378046    -0.32000
C831        C  0.24658443  0.58917255  0.36902203     0.02200
C832        C  0.25061906  0.60787309  0.38247947    -0.33700
H833        H  0.23982212  0.53839226  0.37992885     0.13200
H834        H  0.22574309  0.50439869  0.34964611     0.13100
H835        H  0.22308995  0.56040180  0.28791482     0.12900
H836        H  0.23714851  0.59431940  0.31812687     0.12000
C837        C  0.29106024  0.85448072  0.34038962     0.18300
C838        C  0.30341865  0.85169042  0.36436549    -0.10800
C839        C  0.29801716  0.83026081  0.38009815    -0.11700
C840        C  0.28023277  0.81153938  0.37192288     0.19900
C841        C  0.26752137  0.81465913  0.34819696    -0.13700
C842        C  0.27290147  0.83603308  0.33251191    -0.12000
C843        C  0.27622079  0.78824955  0.38680874     0.00800
C844        C  0.27350989  0.76742461  0.39705534    -0.32000
C845        C  0.29813836  0.87504066  0.32287978     0.02200
C846        C  0.30382757  0.88991519  0.30578154    -0.33700
H847        H  0.31763325  0.86570421  0.37059928     0.13200
H848        H  0.30812236  0.82798839  0.39830330     0.13100
H849        H  0.25389469  0.80025311  0.34154147     0.12900
H850        H  0.26336124  0.83784303  0.31394602     0.12000
C851        C  0.39194727  0.69274002  0.39007051     0.18300
C852        C  0.39927129  0.68562059  0.36496439    -0.10800
C853        C  0.42413669  0.69125161  0.35585859    -0.11700
C854        C  0.44192936  0.70407251  0.37174844     0.19900
C855        C  0.43476751  0.71083245  0.39701333    -0.13700
C856        C  0.40987025  0.70519152  0.40613225    -0.12000
C857        C  0.46699166  0.71122764  0.36160208     0.00800
C858        C  0.48703502  0.71768044  0.35141871    -0.32000
C859        C  0.36562740  0.68875295  0.39865350     0.02200
C860        C  0.34309046  0.68722518  0.40470833    -0.33700
H861        H  0.38561211  0.67616605  0.35226095     0.13200
H862        H  0.42933481  0.68600675  0.33625755     0.13100
H863        H  0.44824317  0.72083962  0.40948281     0.12900
H864        H  0.40444855  0.71097750  0.42551477     0.12000
C865        C  0.61884902  0.71317089  0.18836676     0.18300
C866        C  0.64245624  0.70153504  0.19477370    -0.10800
C867        C  0.66083979  0.69665939  0.17560773    -0.11700
C868        C  0.65578018  0.70336378  0.14985041     0.19900
C869        C  0.63215921  0.71498937  0.14335986    -0.13700
C870        C  0.61370841  0.71989125  0.16259930    -0.12000
C871        C  0.67503642  0.69834509  0.13035125     0.00800
C872        C  0.69235215  0.69365931  0.11544652    -0.32000
C873        C  0.60046768  0.71844797  0.20862627     0.02200
C874        C  0.58817507  0.72179976  0.22816309    -0.33700
H875        H  0.64669435  0.69632501  0.21463324     0.13200
H876        H  0.67902964  0.68771438  0.18088598     0.13100
H877        H  0.62805406  0.72030085  0.12350863     0.12900
H878        H  0.59556506  0.72896817  0.15742253     0.12000
C879        C  0.46297346  0.82416842  0.25934266     0.18300
C880        C  0.45183105  0.82338293  0.23462885    -0.10800
C881        C  0.43244794  0.84108730  0.22781117    -0.11700
C882        C  0.42411334  0.85970758  0.24564730     0.19900
C883        C  0.43533815  0.86051665  0.27030647    -0.13700
C884        C  0.45467814  0.84284480  0.27711214    -0.12000
C885        C  0.40320757  0.87715151  0.23931843     0.00800
C886        C  0.38454540  0.89085946  0.23611850    -0.32000
C887        C  0.48253147  0.80564801  0.26682740     0.02200
C888        C  0.49850927  0.79057130  0.27484556    -0.33700
H889        H  0.45796356  0.80899566  0.22073906     0.13200
H890        H  0.42379191  0.84008104  0.20876727     0.13100
H891        H  0.42894523  0.87462834  0.28436774     0.12900
H892        H  0.46302138  0.84361807  0.29631244     0.12000
C893        C  0.52007563  0.17904224  0.72808315     0.18300
C894        C  0.52943738  0.17883661  0.75355295    -0.10800
C895        C  0.54836520  0.16088468  0.76104024    -0.11700
C896        C  0.55802099  0.14297876  0.74312423     0.19900
C897        C  0.54831400  0.14293253  0.71780997    -0.13700
C898        C  0.52943626  0.16084945  0.71033712    -0.12000
C899        C  0.57919160  0.12598108  0.74989893     0.00800
C900        C  0.59851069  0.11322633  0.75325533    -0.32000
C901        C  0.50155828  0.19831187  0.71974387     0.02200
C902        C  0.48661040  0.21420554  0.71125606    -0.33700
H903        H  0.52244174  0.19279871  0.76747471     0.13200
H904        H  0.55582167  0.16131327  0.78060489     0.13100
H905        H  0.55572633  0.12938719  0.70368600     0.12900
H906        H  0.52245560  0.16079128  0.69058795     0.12000
C907        C  0.33908196  0.30325951  0.84432447     0.18300
C908        C  0.34051614  0.27811547  0.83440282    -0.10800
C909        C  0.35810011  0.27227039  0.81469662    -0.11700
C910        C  0.37437458  0.29153763  0.80482379     0.19900
C911        C  0.37326515  0.31656773  0.81507302    -0.13700
C912        C  0.35567531  0.32241493  0.83477833    -0.12000
C913        C  0.39028305  0.28632623  0.78255867     0.00800
C914        C  0.40094516  0.28319725  0.76205244    -0.32000
C915        C  0.31945977  0.30974164  0.86299992     0.02200
C916        C  0.30164543  0.31500437  0.87709386    -0.33700
H917        H  0.32761902  0.26319986  0.84145524     0.13200
H918        H  0.35851475  0.25295160  0.80669523     0.13100
H919        H  0.38549159  0.33171782  0.80735381     0.12900
H920        H  0.35458463  0.34197100  0.84211371     0.12000
C921        C  0.39251424  0.40342033  0.69026257     0.18300
C922        C  0.40971178  0.42438477  0.69002142    -0.10800
C923        C  0.40064426  0.44957035  0.69454077    -0.11700
C924        C  0.37431802  0.45397314  0.69935064     0.19900
C925        C  0.35719504  0.43299404  0.69957999    -0.13700
C926        C  0.36623395  0.40788755  0.69507456    -0.12000
C927        C  0.36468044  0.47974063  0.70459148     0.00800
C928        C  0.35472643  0.50023226  0.70996962    -0.32000
C929        C  0.40161655  0.37723875  0.68622484     0.02200
C930        C  0.40766901  0.35471875  0.68412946    -0.33700
H931        H  0.43009518  0.42126022  0.68647696     0.13200
H932        H  0.41415035  0.46554232  0.69441197     0.13100
H933        H  0.33683834  0.43602707  0.70337951     0.12900
H934        H  0.35271939  0.39192121  0.69547553     0.12000
C935        C  0.29000317  0.62643849  0.54674197     0.18300
C936        C  0.26957387  0.62201803  0.56402849    -0.10800
C937        C  0.27455700  0.61356118  0.58933109    -0.11700
C938        C  0.30003383  0.60943345  0.59765396     0.19900
C939        C  0.32047169  0.61381498  0.58037290    -0.13700
C940        C  0.31548324  0.62228305  0.55504543    -0.12000
C941        C  0.30506645  0.60109075  0.62397467     0.00800
C942        C  0.30783680  0.59466805  0.64635971    -0.32000
C943        C  0.28475518  0.63602870  0.52088248     0.02200
C944        C  0.27939968  0.64534202  0.50002595    -0.33700
H945        H  0.24979510  0.62527863  0.55800639     0.13200
H946        H  0.25854254  0.61037009  0.60244033     0.13100
H947        H  0.34025326  0.61081754  0.58650406     0.12900
H948        H  0.33149663  0.62575079  0.54201255     0.12000
C949        C  0.24387953  0.43579604  0.84968496     0.18300
C950        C  0.23345882  0.43818178  0.82474623    -0.10800
C951        C  0.24199550  0.45786235  0.80813021    -0.11700
C952        C  0.26105006  0.47529906  0.81628419     0.19900
C953        C  0.27130778  0.47302689  0.84129335    -0.13700
C954        C  0.26277339  0.45336596  0.85789843    -0.12000
C955        C  0.27065700  0.49496482  0.79879758     0.00800
C956        C  0.27956559  0.51090078  0.78412632    -0.32000
C957        C  0.23650133  0.41445523  0.86625122     0.02200
C958        C  0.23270954  0.39558297  0.87958035    -0.33700
H959        H  0.21904267  0.42461931  0.81801433     0.13200
H960        H  0.23397511  0.45927629  0.78882810     0.13100
H961        H  0.28612552  0.48624395  0.84784381     0.12900
H962        H  0.27119806  0.45162853  0.87700234     0.12000
C963        C  0.28017294  0.69656052  0.87455949     0.18300
C964        C  0.30406583  0.68382861  0.87546357    -0.10800
C965        C  0.30948483  0.66387769  0.85804362    -0.11700
C966        C  0.29105969  0.65657337  0.83960997     0.19900
C967        C  0.26688802  0.66880223  0.83919530    -0.13700
C968        C  0.26146907  0.68875022  0.85661364    -0.12000
C969        C  0.29764262  0.63809289  0.81985060     0.00800
C970        C  0.30328996  0.62431968  0.80190794    -0.32000
C971        C  0.27585298  0.71921603  0.89014226     0.02200
C972        C  0.27332327  0.73983602  0.90069491    -0.33700
H973        H  0.31877929  0.68986692  0.88905225     0.13200
H974        H  0.32830423  0.65470313  0.85843258     0.13100
H975        H  0.25255387  0.66346624  0.82491811     0.12900
H976        H  0.24303093  0.69862293  0.85553405     0.12000
C977        C  0.46718598  0.68390978  0.76014530     0.18300
C978        C  0.45216255  0.68782208  0.73789966    -0.10800
C979        C  0.43320044  0.66976059  0.73096030    -0.11700
C980        C  0.42916308  0.64764985  0.74619056     0.19900
C981        C  0.44454734  0.64353905  0.76812610    -0.13700
C982        C  0.46347291  0.66156200  0.77504983    -0.12000
C983        C  0.40806955  0.63020964  0.74055229     0.00800
C984        C  0.38906085  0.61690528  0.73775734    -0.32000
C985        C  0.48558792  0.70317535  0.76850957     0.02200
C986        C  0.50058100  0.71872278  0.77739010    -0.33700
H987        H  0.45474765  0.70503105  0.72623374     0.13200
H988        H  0.42133287  0.67331563  0.71407079     0.13100
H989        H  0.44153337  0.62668420  0.78020362     0.12900
H990        H  0.47486534  0.65831699  0.79232778     0.12000
C991        C  0.59538663  0.60443092  0.30232707     0.18300
C992        C  0.62181516  0.59993823  0.29848619    -0.10800
C993        C  0.63086171  0.57494487  0.29346784    -0.11700
C994        C  0.61359542  0.55412969  0.29220150     0.19900
C995        C  0.58712883  0.55854610  0.29612573    -0.13700
C996        C  0.57805309  0.58361959  0.30115784    -0.12000
C997        C  0.62327315  0.52854455  0.28631105     0.00800
C998        C  0.63342805  0.50826174  0.28058552    -0.32000
C999        C  0.58623555  0.63054695  0.30645906     0.02200
C1000       C  0.57998315  0.65301886  0.30824373    -0.33700
H1001       H  0.63542729  0.61580973  0.29914666     0.13200
H1002       H  0.65133445  0.57188406  0.29037607     0.13100
H1003       H  0.57352496  0.54269292  0.29510743     0.12900
H1004       H  0.55755530  0.58679780  0.30390961     0.12000
C1005       C  0.69775116  0.35150579  0.15227573     0.18300
C1006       C  0.72291444  0.34174755  0.14996209    -0.10800
C1007       C  0.72819218  0.32187929  0.13240313    -0.11700
C1008       C  0.70833186  0.31171171  0.11707421     0.19900
C1009       C  0.68334625  0.32197759  0.11889448    -0.13700
C1010       C  0.67807219  0.34182106  0.13644278    -0.12000
C1011       C  0.71287520  0.28914320  0.10146631     0.00800
C1012       C  0.71544071  0.26861932  0.09076086    -0.32000
C1013       C  0.69169207  0.36994808  0.17219644     0.02200
C1014       C  0.68628897  0.38379103  0.19013648    -0.33700
H1015       H  0.73824446  0.34895301  0.16224069     0.13200
H1016       H  0.74752888  0.31391395  0.13136767     0.13100
H1017       H  0.66778514  0.31408939  0.10735228     0.12900
H1018       H  0.65850911  0.34907472  0.13820019     0.12000
C1019       C  0.52167238  0.32478313  0.22742361     0.18300
C1020       C  0.52759547  0.34598344  0.21156621    -0.10800
C1021       C  0.54676828  0.36361940  0.21888531    -0.11700
C1022       C  0.56024773  0.36029678  0.24217843     0.19900
C1023       C  0.55421164  0.33920708  0.25818783    -0.13700
C1024       C  0.53499341  0.32153421  0.25085435    -0.12000
C1025       C  0.58121906  0.37765061  0.24871114     0.00800
C1026       C  0.60003286  0.39109876  0.25225473    -0.32000
C1027       C  0.50247827  0.30615455  0.21912936     0.02200
C1028       C  0.48685213  0.29099194  0.21054703    -0.33700
H1029       H  0.51758989  0.34872477  0.19336233     0.13200
H1030       H  0.55133559  0.37964188  0.20618786     0.13100
H1031       H  0.56459552  0.33621802  0.27613590     0.12900
H1032       H  0.53075087  0.30521634  0.26328169     0.12000
C1033       C  0.74134125  0.56729154  0.13389711     0.18300
C1034       C  0.72150680  0.54963156  0.12856065    -0.10800
C1035       C  0.71439507  0.53104612  0.14702380    -0.11700
C1036       C  0.72699170  0.52994375  0.17103615     0.19900
C1037       C  0.74708919  0.54734111  0.17622243    -0.13700
C1038       C  0.75420961  0.56592020  0.15775281    -0.12000
C1039       C  0.71856521  0.51165457  0.19057416     0.00800
C1040       C  0.71005147  0.49665638  0.20645679    -0.32000
C1041       C  0.74728578  0.58789809  0.11579511     0.02200
C1042       C  0.75100484  0.60679301  0.10241553    -0.33700
H1043       H  0.71121548  0.55053479  0.11034764     0.13200
H1044       H  0.69877164  0.51781568  0.14273499     0.13100
H1045       H  0.75696004  0.54683266  0.19468031     0.12900
H1046       H  0.76942262  0.57954082  0.16228148     0.12000
C1047       C  0.68541920  0.40186723  0.39404382     0.18300
C1048       C  0.71085676  0.39699614  0.40199987    -0.10800
C1049       C  0.71592031  0.38863669  0.42725733    -0.11700
C1050       C  0.69560519  0.38506602  0.44482398     0.19900
C1051       C  0.67015157  0.39010784  0.43696757    -0.13700
C1052       C  0.66507568  0.39849466  0.41165152    -0.12000
C1053       C  0.70095861  0.37495643  0.47034547     0.00800
C1054       C  0.70671410  0.36473013  0.49058460    -0.32000
C1055       C  0.68043676  0.40975418  0.36766525     0.02200
C1056       C  0.67836542  0.41562775  0.34510683    -0.33700
H1057       H  0.72676126  0.39942120  0.38859776     0.13200
H1058       H  0.73565800  0.38463699  0.43298609     0.13100
H1059       H  0.65424487  0.38725379  0.45027473     0.12900
H1060       H  0.64531850  0.40209736  0.40575430     0.12000
C1061       C  0.59500503  0.31369242  0.59845706     0.18300
C1062       C  0.57762119  0.29956123  0.58322394    -0.10800
C1063       C  0.55253697  0.29456271  0.59218989    -0.11700
C1064       C  0.54460877  0.30364793  0.61646963     0.19900
C1065       C  0.56185523  0.31816375  0.63149739    -0.13700
C1066       C  0.58692879  0.32315519  0.62253841    -0.12000
C1067       C  0.51938825  0.29698787  0.62662475     0.00800
C1068       C  0.49923207  0.29066254  0.63669883    -0.32000
C1069       C  0.62148139  0.31714885  0.59009690     0.02200
C1070       C  0.64401867  0.31838376  0.58395728    -0.33700
H1071       H  0.58360755  0.29198784  0.56465515     0.13200
H1072       H  0.53950639  0.28321250  0.58040443     0.13100
H1073       H  0.55608594  0.32520515  0.65034584     0.12900
H1074       H  0.60016167  0.33396391  0.63460856     0.12000
C1075       C  0.69169267  0.15700155  0.64913397     0.18300
C1076       C  0.67195907  0.17250246  0.63894908    -0.10800
C1077       C  0.67777392  0.19174094  0.62084686    -0.11700
C1078       C  0.70335110  0.19557440  0.61282263     0.19900
C1079       C  0.72299316  0.17960120  0.62245844    -0.13700
C1080       C  0.71716936  0.16033077  0.64056567    -0.12000
C1081       C  0.70960808  0.21763700  0.59704210     0.00800
C1082       C  0.71351456  0.23822129  0.58683204    -0.32000
C1083       C  0.68608424  0.13901386  0.66964831     0.02200
C1084       C  0.68164374  0.12525362  0.68795676    -0.33700
H1085       H  0.65222192  0.17022320  0.64555676     0.13200
H1086       H  0.66247754  0.20417677  0.61376871     0.13100
H1087       H  0.74287746  0.18258704  0.61663184     0.12900
H1088       H  0.73260364  0.14856416  0.64843689     0.12000
C1089       C  0.87629538  0.29571025  0.68441054     0.18300
C1090       C  0.86998178  0.27671954  0.66619530    -0.10800
C1091       C  0.85136882  0.28181678  0.64718891    -0.11700
C1092       C  0.83895008  0.30589118  0.64634883     0.19900
C1093       C  0.84575192  0.32507593  0.66417260    -0.13700
C1094       C  0.86435511  0.31999646  0.68313224    -0.12000
C1095       C  0.81816273  0.31040782  0.62831955     0.00800
C1096       C  0.79974511  0.31415625  0.61448145    -0.32000
C1097       C  0.89288064  0.28970604  0.70599136     0.02200
C1098       C  0.90361232  0.28595696  0.72636805    -0.33700
H1099       H  0.87885656  0.25778265  0.66714982     0.13200
H1100       H  0.84617723  0.26678392  0.63360277     0.13100
H1101       H  0.83620343  0.34370770  0.66383796     0.12900
H1102       H  0.86885305  0.33473907  0.69728213     0.12000
C1103       C  0.74081706  0.43690874  0.63822282     0.18300
C1104       C  0.73265300  0.43486927  0.66402336    -0.10800
C1105       C  0.73913615  0.45409562  0.68192509    -0.11700
C1106       C  0.75383283  0.47548006  0.67414057     0.19900
C1107       C  0.76164101  0.47769945  0.64826104    -0.13700
C1108       C  0.75516933  0.45848576  0.63037584    -0.12000
C1109       C  0.76225462  0.49436555  0.69284987     0.00800
C1110       C  0.77137654  0.50970412  0.70787860    -0.32000
C1111       C  0.73612020  0.41602368  0.62035203     0.02200
C1112       C  0.73403463  0.39719989  0.60672730    -0.33700
H1113       H  0.72176839  0.41817076  0.67041460     0.13200
H1114       H  0.73314566  0.45202779  0.70189718     0.13100
H1115       H  0.77317693  0.49401515  0.64202712     0.12900
H1116       H  0.76182234  0.46018664  0.61058108     0.12000
C1117       C  0.84308544  0.34998618  0.29766630     0.18300
C1118       C  0.82931725  0.36179817  0.31778224    -0.10800
C1119       C  0.80890460  0.37868266  0.31219253    -0.11700
C1120       C  0.80211492  0.38389109  0.28644806     0.19900
C1121       C  0.81622833  0.37249468  0.26632757    -0.13700
C1122       C  0.83665172  0.35561021  0.27191933    -0.12000
C1123       C  0.77939085  0.39910025  0.28081855     0.00800
C1124       C  0.75881208  0.40948223  0.27705727    -0.32000
C1125       C  0.86238591  0.33065186  0.30340342     0.02200
C1126       C  0.87680458  0.31286256  0.30801052    -0.33700
H1127       H  0.83391752  0.35744464  0.33776081     0.13200
H1128       H  0.79799059  0.38713060  0.32793379     0.13100
H1129       H  0.81102280  0.37612186  0.24635565     0.12900
H1130       H  0.84697267  0.34643327  0.25618848     0.12000
C1131       C  0.81341905  0.26865991  0.46561474     0.18300
C1132       C  0.80429115  0.25985750  0.44165389    -0.10800
C1133       C  0.82170464  0.25188870  0.42245482    -0.11700
C1134       C  0.84842515  0.25261751  0.42702216     0.19900
C1135       C  0.85751451  0.26089319  0.45117605    -0.13700
C1136       C  0.84010127  0.26885545  0.47037634    -0.12000
C1137       C  0.86640029  0.24659775  0.40637373     0.00800
C1138       C  0.88039688  0.24355317  0.38783421    -0.32000
C1139       C  0.79558801  0.27864322  0.48478487     0.02200
C1140       C  0.78091320  0.28811838  0.50038143    -0.33700
H1141       H  0.78375914  0.25964541  0.43761973     0.13200
H1142       H  0.81435142  0.24569994  0.40386180     0.13100
H1143       H  0.87807104  0.26172579  0.45497936     0.12900
H1144       H  0.84747787  0.27565919  0.48874020     0.12000
C1145       C  0.05669591  0.36019964  0.23874613     0.18300
C1146       C  0.05767391  0.33472456  0.22955818    -0.10800
C1147       C  0.03868410  0.31681910  0.23684795    -0.11700
C1148       C  0.01854752  0.32423861  0.25340852     0.19900
C1149       C  0.01721521  0.34987830  0.26205683    -0.13700
C1150       C  0.03620231  0.36777303  0.25477838    -0.12000
C1151       C  0.00019097  0.30532796  0.26281744     0.00800
C1152       C  0.98544921  0.28989289  0.27241357    -0.32000
C1153       C  0.07783489  0.37778491  0.23362873     0.02200
C1154       C  0.09700245  0.39099490  0.23144827    -0.33700
H1155       H  0.07349931  0.32851052  0.21733582     0.13200
H1156       H  0.04006349  0.29707613  0.23009736     0.13100
H1157       H  0.00185178  0.35588228  0.27495555     0.12900
H1158       H  0.03527988  0.38729377  0.26221602     0.12000
C1159       C  0.86780433  0.22016154  0.18644913     0.18300
C1160       C  0.85405098  0.23990097  0.17393100    -0.10800
C1161       C  0.83845014  0.23415098  0.15256916    -0.11700
C1162       C  0.83654900  0.20864970  0.14364839     0.19900
C1163       C  0.85084752  0.18908257  0.15575115    -0.13700
C1164       C  0.86642543  0.19482306  0.17706679    -0.12000
C1165       C  0.81825100  0.20210719  0.12370903     0.00800
C1166       C  0.80116808  0.19610816  0.10903378    -0.32000
C1167       C  0.88168398  0.22529049  0.21005298     0.02200
C1168       C  0.89177293  0.22784726  0.23093199    -0.33700
H1169       H  0.85480335  0.25953354  0.18111131     0.13200
H1170       H  0.82730376  0.24941099  0.14351662     0.13100
H1171       H  0.84935717  0.16927201  0.14919968     0.12900
H1172       H  0.87680372  0.17937046  0.18669337     0.12000
C1173       C  0.33953375  0.16269914  0.69746041     0.18300
C1174       C  0.32616349  0.16427490  0.72098866    -0.10800
C1175       C  0.30601992  0.14706777  0.72642992    -0.11700
C1176       C  0.29908548  0.12811222  0.70840297     0.19900
C1177       C  0.31292453  0.12604697  0.68516933    -0.13700
C1178       C  0.33309091  0.14328413  0.67971646    -0.12000
C1179       C  0.27642681  0.11241986  0.71276957     0.00800
C1180       C  0.25600593  0.10145539  0.71555234    -0.32000
C1181       C  0.35854716  0.18209232  0.69098204     0.02200
C1182       C  0.37293226  0.19981367  0.68601656    -0.33700
H1183       H  0.33084221  0.17924714  0.73482056     0.13200
H1184       H  0.29537252  0.14902881  0.74436908     0.13100
H1185       H  0.30765046  0.11162218  0.67097752     0.12900
H1186       H  0.34317219  0.14190589  0.66140138     0.12000
C1187       C  0.20874899  0.19623370  0.86693027     0.18300
C1188       C  0.19113735  0.17736354  0.87515236    -0.10800
C1189       C  0.18499176  0.15659855  0.85895398    -0.11700
C1190       C  0.19641816  0.15463908  0.83446131     0.19900
C1191       C  0.21440048  0.17324271  0.82646590    -0.13700
C1192       C  0.22053536  0.19397484  0.84263803    -0.12000
C1193       C  0.18866971  0.13457881  0.81681005     0.00800
C1194       C  0.18225069  0.11959135  0.80017252    -0.32000
C1195       C  0.21336882  0.21887505  0.88243920     0.02200
C1196       C  0.21620938  0.23924024  0.89339501    -0.33700
H1197       H  0.18173733  0.17901648  0.89379762     0.13200
H1198       H  0.17094675  0.14242791  0.86527774     0.13100
H1199       H  0.22323913  0.17203221  0.80750705     0.12900
H1200       H  0.23400687  0.20854581  0.83596506     0.12000
C1201       C  0.06096014  0.14701282  0.74271470     0.18300
C1202       C  0.06761212  0.17177039  0.75142510    -0.10800
C1203       C  0.04840962  0.18909211  0.75936148    -0.11700
C1204       C  0.02233963  0.18183501  0.75868052     0.19900
C1205       C  0.01561451  0.15716291  0.74972631    -0.13700
C1206       C  0.03486280  0.13979684  0.74177886    -0.12000
C1207       C  0.00274665  0.19946555  0.76797515     0.00800
C1208       C  0.98720626  0.21451017  0.77683561    -0.32000
C1209       C  0.08113872  0.12885897  0.73603617     0.02200
C1210       C  0.09961797  0.11494219  0.73266918    -0.33700
H1211       H  0.08769482  0.17756750  0.75242135     0.13200
H1212       H  0.05391887  0.20802507  0.76632487     0.13100
H1213       H  0.99555349  0.15124642  0.74918756     0.12900
H1214       H  0.02943208  0.12069036  0.73525588     0.12000
C1215       C  0.24551608  0.93963713  0.85423707     0.18300
C1216       C  0.22903787  0.95996569  0.86129055    -0.10800
C1217       C  0.22178937  0.97865372  0.84298964    -0.11700
C1218       C  0.23091951  0.97715887  0.81747601     0.19900
C1219       C  0.24787760  0.95718132  0.81060373    -0.28100
C1220       C  0.25512932  0.93851188  0.82889493    -0.12000
C1221       C  0.22172529  0.99516362  0.79807188     0.00800
C1222       C  0.21255053  0.00951290  0.78198492    -0.32000
C1223       C  0.25079721  0.91877253  0.87216861     0.02200
C1224       C  0.25343056  0.89961997  0.88538353    -0.33700
H1225       H  0.22127207  0.96099479  0.88070885     0.13200
H1226       H  0.20858108  0.99390482  0.84857877     0.13100
H1227       H  0.25500251  0.95568123  0.79097210     0.12900
H1228       H  0.26769692  0.92281044  0.82308067     0.12000
C1229       C  0.36971697  0.21396356  0.29942333     0.18300
C1230       C  0.36959990  0.18992304  0.31199100    -0.10800
C1231       C  0.35203114  0.18507771  0.33205350    -0.11700
C1232       C  0.33444373  0.20423764  0.33965965     0.19900
C1233       C  0.33480551  0.22837326  0.32731626    -0.13700
C1234       C  0.35235413  0.23321287  0.30727541    -0.12000
C1235       C  0.31515167  0.19881818  0.35911886     0.00800
C1236       C  0.29775457  0.19453626  0.37411731    -0.32000
C1237       C  0.38614660  0.21824097  0.27723268     0.02200
C1238       C  0.39755416  0.22121549  0.25704731    -0.33700
H1239       H  0.38270489  0.17476717  0.30593241     0.13200
H1240       H  0.35184183  0.16627449  0.34128411     0.13100
H1241       H  0.32119856  0.24328706  0.33285588     0.12900
H1242       H  0.35201662  0.25176740  0.29755230     0.12000
C1243       C  0.25577623  0.03507050  0.31386245     0.18300
C1244       C  0.25076045  0.02805199  0.33960967    -0.10800
C1245       C  0.24410837  0.04692367  0.35788898    -0.11700
C1246       C  0.24241779  0.07297093  0.35056353     0.19900
C1247       C  0.24710915  0.07992245  0.32474163    -0.13700
C1248       C  0.25376131  0.06107572  0.30648745    -0.12000
C1249       C  0.23709902  0.09282720  0.36952626     0.00800
C1250       C  0.23430721  0.11115763  0.38376372    -0.32000
C1251       C  0.26422886  0.01587228  0.29536325     0.02200
C1252       C  0.27289361  0.00020091  0.28032266    -0.33700
H1253       H  0.25238861  0.00806736  0.34564108     0.13200
H1254       H  0.24068286  0.04125663  0.37777171     0.13100
H1255       H  0.24602306  0.09997616  0.31880345     0.12900
H1256       H  0.25772559  0.06684210  0.28672979     0.12000
C1257       C  0.35070350  0.25442386  0.56291747     0.18300
C1258       C  0.35930337  0.23930335  0.54214796    -0.10800
C1259       C  0.34194449  0.23128994  0.52295866    -0.11700
C1260       C  0.31579263  0.23828110  0.52435258     0.19900
C1261       C  0.30723830  0.25367952  0.54495760    -0.13700
C1262       C  0.32460755  0.26169776  0.56415838    -0.12000
C1263       C  0.29766398  0.22883553  0.50522096     0.00800
C1264       C  0.28261507  0.21989806  0.48968726    -0.32000
C1265       C  0.36819175  0.26092811  0.58378222     0.02200
C1266       C  0.38176164  0.26433875  0.60254084    -0.33700
H1267       H  0.37932528  0.23331857  0.54102671     0.13200
H1268       H  0.34884547  0.21930826  0.50725158     0.13100
H1269       H  0.28708967  0.25915046  0.54639806     0.12900
H1270       H  0.31759482  0.27316863  0.58019599     0.12000
C1271       C  0.09497625  0.19804804  0.39247664     0.18300
C1272       C  0.09041463  0.19837544  0.36573257    -0.10800
C1273       C  0.06558329  0.20339665  0.35610736    -0.11700
C1274       C  0.04500247  0.20816875  0.37311352     0.19900
C1275       C  0.04950705  0.20767657  0.39987318    -0.13700
C1276       C  0.07437450  0.20265090  0.40951227    -0.12000
C1277       C  0.01956893  0.21423620  0.36297791     0.00800
C1278       C  0.99908684  0.22002688  0.35317176    -0.32000
C1279       C  0.12094843  0.19396494  0.40220142     0.02200
C1280       C  0.14327509  0.19187992  0.40896208    -0.33700
H1281       H  0.10611683  0.19500909  0.35229629     0.13200
H1282       H  0.06249259  0.20379794  0.33539295     0.13100
H1283       H  0.03386684  0.21141471  0.41327639     0.12900
H1284       H  0.07757319  0.20261448  0.43020856     0.12000
C1285       C  0.19548899  0.11965447  0.54462245     0.18300
C1286       C  0.17763191  0.13138580  0.56129647    -0.10800
C1287       C  0.17278164  0.12085697  0.58582233    -0.11700
C1288       C  0.18571471  0.09845652  0.59397180     0.19900
C1289       C  0.20322297  0.08640449  0.57712126    -0.13700
C1290       C  0.20807964  0.09695019  0.55255269    -0.12000
C1291       C  0.18227571  0.08902724  0.62017136     0.00800
C1292       C  0.18061947  0.08316581  0.64281238    -0.32000
C1293       C  0.20184078  0.13177050  0.52011412     0.02200
C1294       C  0.20781099  0.14330744  0.50058267    -0.33700
H1295       H  0.16784092  0.14898729  0.55555138     0.13200
H1296       H  0.15935183  0.13051381  0.59864586     0.13100
H1297       H  0.21351790  0.06919739  0.58316798     0.12900
H1298       H  0.22202440  0.08770557  0.53997890     0.12000
C1299       C  0.19094745  0.34918318  0.33729934     0.18300
C1300       C  0.21460693  0.35010050  0.35051748    -0.10800
C1301       C  0.22066731  0.33119722  0.36904070    -0.11700
C1302       C  0.20305514  0.31132706  0.37445540     0.19900
C1303       C  0.17924456  0.31075723  0.36156738    -0.13700
C1304       C  0.17321423  0.32958470  0.34309222    -0.12000
C1305       C  0.20983364  0.29027065  0.39153176     0.00800
C1306       C  0.21366844  0.27021281  0.40290226    -0.32000
C1307       C  0.18530934  0.36731525  0.31679118     0.02200
C1308       C  0.18045404  0.38106193  0.29850510    -0.33700
H1309       H  0.22856268  0.36506688  0.34611386     0.13200
H1310       H  0.23923848  0.33174093  0.37866255     0.13100
H1311       H  0.16556195  0.29537261  0.36536334     0.12900
H1312       H  0.15495032  0.32853290  0.33292837     0.12000
C1313       C  0.15002813  0.66375208  0.69358307     0.18300
C1314       C  0.16947130  0.67059200  0.71110868    -0.10800
C1315       C  0.18874106  0.65283387  0.71768232    -0.11700
C1316       C  0.18872995  0.62805775  0.70681772     0.19900
C1317       C  0.16916593  0.62107552  0.68942681    -0.13700
C1318       C  0.14981991  0.63888919  0.68284369    -0.12000
C1319       C  0.20995500  0.61080417  0.71218200     0.00800
C1320       C  0.22997193  0.59939605  0.71582955    -0.32000
C1321       C  0.13086534  0.68265354  0.68633277     0.02200
C1322       C  0.11618563  0.70003138  0.68113451    -0.33700
H1323       H  0.16991948  0.68977624  0.71944603     0.13200
H1324       H  0.20391659  0.65857894  0.73090275     0.13100
H1325       H  0.16911396  0.60208421  0.68066368     0.12900
H1326       H  0.13494882  0.63340943  0.66918035     0.12000
C1327       C  0.17158921  0.73786791  0.52011774     0.18300
C1328       C  0.14627325  0.74480284  0.51325757    -0.10800
C1329       C  0.12849516  0.75225418  0.53235873    -0.11700
C1330       C  0.13590228  0.75283508  0.55844979     0.19900
C1331       C  0.16129118  0.74615395  0.56521915    -0.13700
C1332       C  0.17902499  0.73871813  0.54616485    -0.12000
C1333       C  0.11747501  0.75920547  0.57855017     0.00800
C1334       C  0.10379963  0.76278452  0.59721278    -0.32000
C1335       C  0.18966030  0.72882318  0.50076046     0.02200
C1336       C  0.20488878  0.71985789  0.48543038    -0.33700
H1337       H  0.14019227  0.74411914  0.49323792     0.13200
H1338       H  0.10892633  0.75722902  0.52681975     0.13100
H1339       H  0.16728823  0.74636518  0.58528127     0.12900
H1340       H  0.19845170  0.73329191  0.55180039     0.12000
C1341       C  0.10874674  0.95312048  0.69750087     0.18300
C1342       C  0.09153128  0.94054190  0.71425639    -0.10800
C1343       C  0.08254521  0.91567504  0.70843592    -0.11700
C1344       C  0.09069249  0.90315445  0.68580984     0.19900
C1345       C  0.10749124  0.91594146  0.66879656    -0.13700
C1346       C  0.11647222  0.94081259  0.67461388    -0.12000
C1347       C  0.08316778  0.87666295  0.68100110     0.00800
C1348       C  0.07807352  0.85395363  0.67879431    -0.32000
C1349       C  0.11977570  0.97782550  0.70453986     0.02200
C1350       C  0.13068519  0.99747349  0.71096225    -0.33700
H1351       H  0.08550600  0.94970837  0.73208544     0.13200
H1352       H  0.06970963  0.90599410  0.72185886     0.13100
H1353       H  0.11409607  0.90647632  0.65133446     0.12900
H1354       H  0.12988387  0.95019959  0.66155436     0.12000
C1355       C  0.92711649  0.64492587  0.73895701     0.18300
C1356       C  0.92768072  0.65560724  0.71403108    -0.10800
C1357       C  0.94748660  0.67253961  0.70684956    -0.11700
C1358       C  0.96695825  0.67899723  0.72451347     0.19900
C1359       C  0.96658989  0.66813951  0.74940793    -0.13700
C1360       C  0.94670925  0.65115219  0.75661818    -0.12000
C1361       C  0.98690348  0.69705608  0.71695433     0.00800
C1362       C  0.00251975  0.71246692  0.70887542    -0.32000
C1363       C  0.90591237  0.62827168  0.74624718     0.02200
C1364       C  0.88669358  0.61550325  0.74986889    -0.33700
H1365       H  0.91265466  0.65102831  0.70020302     0.13200
H1366       H  0.94749691  0.68076474  0.68756335     0.13100
H1367       H  0.98150633  0.67295050  0.76326486     0.12900
H1368       H  0.94649558  0.64308929  0.77596390     0.12000
C1369       C  0.15293583  0.80255398  0.83948428     0.18300
C1370       C  0.13350589  0.82023881  0.83278300    -0.10800
C1371       C  0.11599435  0.81441318  0.81295229    -0.11700
C1372       C  0.11775675  0.79085414  0.79969880     0.19900
C1373       C  0.13682435  0.77294377  0.80681178    -0.13700
C1374       C  0.15431703  0.77876192  0.82662881    -0.12000
C1375       C  0.10158683  0.78600539  0.77742613     0.00800
C1376       C  0.09032831  0.78302147  0.75715513    -0.32000
C1377       C  0.17237465  0.80929599  0.85838148     0.02200
C1378       C  0.18991275  0.81457971  0.87288754    -0.33700
H1379       H  0.13227406  0.83874760  0.84244542     0.13200
H1380       H  0.10152334  0.82854666  0.80751142     0.13100
H1381       H  0.13859551  0.75477569  0.79659757     0.12900
H1382       H  0.16930438  0.76496108  0.83149988     0.12000
C1383       C  0.89183004  0.10555401  0.30173138     0.18300
C1384       C  0.87332465  0.10145696  0.28237902    -0.10800
C1385       C  0.86350274  0.07667130  0.27788546    -0.11700
C1386       C  0.87203948  0.05559693  0.29266521     0.19900
C1387       C  0.89049752  0.05962874  0.31215700    -0.13700
C1388       C  0.90036318  0.08452576  0.31667184    -0.12000
C1389       C  0.86168362  0.03007326  0.28751964     0.00800
C1390       C  0.85157113  0.00981133  0.28157021    -0.32000
C1391       C  0.90175715  0.13141112  0.30589190     0.02200
C1392       C  0.90820225  0.15387482  0.30727436    -0.33700
H1393       H  0.86649368  0.11745543  0.27069843     0.13200
H1394       H  0.84924408  0.07393721  0.26280142     0.13100
H1395       H  0.89727656  0.04358227  0.32379136     0.12900
H1396       H  0.91462025  0.08734933  0.33173185     0.12000
C1397       C  0.79594226  0.85037865  0.15031022     0.18300
C1398       C  0.81606342  0.83967073  0.13564183    -0.10800
C1399       C  0.81117044  0.81915255  0.11865602    -0.11700
C1400       C  0.78610885  0.80915742  0.11616437     0.19900
C1401       C  0.76587356  0.82031741  0.13033003    -0.13700
C1402       C  0.77076484  0.84083526  0.14730758    -0.12000
C1403       C  0.78157179  0.78627883  0.10072172     0.00800
C1404       C  0.77845609  0.76582244  0.08982868    -0.32000
C1405       C  0.80136771  0.86971050  0.16978275     0.02200
C1406       C  0.80570380  0.88425050  0.18757906    -0.33700
H1407       H  0.83564259  0.84670662  0.13784414     0.13200
H1408       H  0.82704526  0.81063889  0.10800029     0.13100
H1409       H  0.74644416  0.81271610  0.12877825     0.12900
H1410       H  0.75503827  0.84878164  0.15860528     0.12000
C1411       C  0.96511940  0.82524981  0.22896814     0.18300
C1412       C  0.96292343  0.84839487  0.21497229    -0.10800
C1413       C  0.94469169  0.86707958  0.22218220    -0.11700
C1414       C  0.92848632  0.86284187  0.24350290     0.19900
C1415       C  0.93096264  0.83988158  0.25778246    -0.13700
C1416       C  0.94921513  0.82117385  0.25056321    -0.12000
C1417       C  0.90800264  0.88099626  0.24934874     0.00800
C1418       C  0.88914469  0.89451506  0.25235872    -0.32000
C1419       C  0.98308187  0.80550099  0.22054271     0.02200
C1420       C  0.99800092  0.78963862  0.21197300    -0.33700
H1421       H  0.97500855  0.85181338  0.19820347     0.13200
H1422       H  0.94286354  0.88457433  0.21079942     0.13100
H1423       H  0.91842144  0.83619726  0.27415221     0.12900
H1424       H  0.95061224  0.80338406  0.26153740     0.12000
C1425       C  0.74489286  0.07225405  0.13732388     0.18300
C1426       C  0.76795532  0.05853522  0.13349544    -0.10800
C1427       C  0.77529848  0.03894478  0.15076353    -0.11700
C1428       C  0.75969729  0.03284264  0.17209946     0.19900
C1429       C  0.73644691  0.04632233  0.17577736    -0.13700
C1430       C  0.72909017  0.06594976  0.15847736    -0.12000
C1431       C  0.76814861  0.01345511  0.19055909     0.00800
C1432       C  0.77679661  0.99779226  0.20573032    -0.32000
C1433       C  0.73832993  0.09362227  0.12034893     0.02200
C1434       C  0.73483737  0.11247651  0.10684594    -0.33700
H1435       H  0.78047427  0.06325286  0.11738128     0.13200
H1436       H  0.79335185  0.02880497  0.14767455     0.13100
H1437       H  0.72420682  0.04192879  0.19219150     0.12900
H1438       H  0.71129983  0.07645835  0.16182611     0.12000
C1439       C  0.64643384  0.84503201  0.28931535     0.18300
C1440       C  0.65612622  0.84769552  0.26411482    -0.10800
C1441       C  0.67610303  0.86522834  0.25897047    -0.11700
C1442       C  0.68648518  0.88022951  0.27898471     0.19900
C1443       C  0.67638369  0.87796558  0.30404419    -0.13700
C1444       C  0.65643231  0.86044629  0.30918441    -0.12000
C1445       C  0.70891693  0.89617293  0.27443353     0.00800
C1446       C  0.72929590  0.90727105  0.27195696    -0.32000
C1447       C  0.62753331  0.82535471  0.29514944     0.02200
C1448       C  0.61314349  0.80772215  0.30035750    -0.33700
H1449       H  0.64870410  0.83578043  0.24860973     0.13200
H1450       H  0.68390154  0.86658059  0.23956567     0.13100
H1451       H  0.68439825  0.88923017  0.31974061     0.12900
H1452       H  0.64925628  0.85846122  0.32877580     0.12000
C1453       C  0.94155950  0.79965510  0.61383293     0.18300
C1454       C  0.93055292  0.78318110  0.59536036    -0.10800
C1455       C  0.90559656  0.78794531  0.58591305    -0.11700
C1456       C  0.89138581  0.80923287  0.59484396     0.19900
C1457       C  0.90252864  0.82591477  0.61304169    -0.13700
C1458       C  0.92748949  0.82115035  0.62248954    -0.12000
C1459       C  0.86496626  0.81310572  0.58640856     0.00800
C1460       C  0.84240856  0.81492008  0.58044276    -0.32000
C1461       C  0.96667954  0.79382391  0.62478448     0.02200
C1462       C  0.98693579  0.78813807  0.63507472    -0.33700
H1463       H  0.94108686  0.76642016  0.58857363     0.13200
H1464       H  0.89722410  0.77478286  0.57198441     0.13100
H1465       H  0.89176558  0.84234665  0.62025697     0.12900
H1466       H  0.93563829  0.83398556  0.63684961     0.12000
C1467       C  0.79393483  0.88307151  0.44337059     0.18300
C1468       C  0.78708166  0.90831692  0.43618496    -0.10800
C1469       C  0.79215473  0.91729668  0.41105459    -0.11700
C1470       C  0.80413041  0.90111335  0.39288341     0.19900
C1471       C  0.81146981  0.87607303  0.40026605    -0.13700
C1472       C  0.80640766  0.86710685  0.42536466    -0.12000
C1473       C  0.80742647  0.90951403  0.36631526     0.00800
C1474       C  0.80857795  0.91546003  0.34366009    -0.32000
C1475       C  0.78692995  0.87292402  0.46856230     0.02200
C1476       C  0.78024350  0.86269180  0.48856528    -0.33700
H1477       H  0.77733992  0.92086269  0.44981081     0.13200
H1478       H  0.78624214  0.93664002  0.40564309     0.13100
H1479       H  0.82060695  0.86327491  0.38645540     0.12900
H1480       H  0.81172729  0.84752907  0.43055207     0.12000
C1481       C  0.61263302  0.79655175  0.68560094     0.18300
C1482       C  0.61587371  0.77794765  0.66617483    -0.10800
C1483       C  0.63395342  0.78196277  0.64636093    -0.11700
C1484       C  0.64886335  0.80458700  0.64593077     0.19900
C1485       C  0.64514801  0.82338636  0.66502175    -0.13700
C1486       C  0.62712325  0.81939171  0.68475773    -0.12000
C1487       C  0.66899727  0.80814327  0.62695104     0.00800
C1488       C  0.68714318  0.81208181  0.61280027    -0.32000
C1489       C  0.59640154  0.79149213  0.70772903     0.02200
C1490       C  0.58589659  0.78825865  0.72833926    -0.33700
H1491       H  0.60497065  0.76009982  0.66673334     0.13200
H1492       H  0.63672644  0.76721432  0.63178496     0.13100
H1493       H  0.65663246  0.84087996  0.66500022     0.12900
H1494       H  0.62500394  0.83380892  0.69977575     0.12000
C1495       C  0.72724275  0.97569208  0.67068180     0.18300
C1496       C  0.73141715  0.95055709  0.67996075    -0.10800
C1497       C  0.73871441  0.93076228  0.66299211    -0.11700
C1498       C  0.74193491  0.93585706  0.63652692     0.19900
C1499       C  0.73802054  0.96105387  0.62724483    -0.13700
C1500       C  0.73071351  0.98088788  0.64424751    -0.12000
C1501       C  0.74800540  0.91489787  0.61897048     0.00800
C1502       C  0.75137858  0.89598908  0.60560004    -0.32000
C1503       C  0.71848922  0.99575396  0.68816212     0.02200
C1504       C  0.71003823  0.01165223  0.70312797    -0.33700
H1505       H  0.72870365  0.94617209  0.70028010     0.13200
H1506       H  0.74149164  0.91139594  0.67046198     0.13100
H1507       H  0.74026460  0.96529460  0.60684187     0.12900
H1508       H  0.72745321  0.00015891  0.63673422     0.12000
C1509       C  0.77655021  0.69267716  0.61155385     0.18300
C1510       C  0.75955772  0.68645061  0.63173607    -0.10800
C1511       C  0.76544018  0.66623487  0.64878360    -0.11700
C1512       C  0.78837675  0.65212326  0.64579179     0.19900
C1513       C  0.80496649  0.65781279  0.62512370    -0.13700
C1514       C  0.79907882  0.67803612  0.60806469    -0.12000
C1515       C  0.79580634  0.63336748  0.66511810     0.00800
C1516       C  0.80215150  0.61945589  0.68280536    -0.32000
C1517       C  0.77224669  0.71563750  0.59625577     0.02200
C1518       C  0.77000354  0.73649919  0.58598441    -0.33700
H1519       H  0.74221369  0.69776849  0.63482148     0.13200
H1520       H  0.75253091  0.66215969  0.66476721     0.13100
H1521       H  0.82283339  0.64717591  0.62268494     0.12900
H1522       H  0.81250307  0.68280304  0.59271427     0.12000
C1523       C  0.66922057  0.77267977  0.46406586     0.18300
C1524       C  0.67686928  0.75677641  0.44352701    -0.10800
C1525       C  0.65893152  0.74922487  0.42472523    -0.11700
C1526       C  0.63317210  0.75749030  0.42629204     0.19900
C1527       C  0.62546396  0.77329831  0.44689828    -0.13700
C1528       C  0.64341802  0.78084998  0.46572445    -0.12000
C1529       C  0.61524869  0.75106202  0.40585501     0.00800
C1530       C  0.60199944  0.74715787  0.38700831    -0.32000
C1531       C  0.68794458  0.78112688  0.48301413     0.02200
C1532       C  0.70349875  0.78906984  0.49854398    -0.33700
H1533       H  0.69675065  0.75043102  0.44189675     0.13200
H1534       H  0.66523316  0.73724260  0.40877050     0.13100
H1535       H  0.60569992  0.78006657  0.44821858     0.12900
H1536       H  0.63725034  0.79326022  0.48139978     0.12000
loop_ 
_geom_bond_atom_site_label_1 
_geom_bond_atom_site_label_2 
_geom_bond_distance 
_geom_bond_site_symmetry_2 
_ccdc_geom_bond_type 
O1           C16   1.266       .  A
O1           Al9   1.935       .  S
C2           O12   1.265       .  A
C2            O3   1.259       .  A
C2         C1488   1.438       .  S
O3           Al5   1.892       .  S
O4            C6   1.259       .  A
O4           Al5   1.913       .  S
Al5          O13   1.917       .  S
Al5          O15   1.903       .  S
Al5          O14   1.790       .  S
C6           O19   1.259       .  A
C6         C1518   1.438       .  S
O7           C17   1.261       .  A
O7           Al9   1.926       .  S
O8           C21   1.265       .  A
O8          Al18   1.930       .  S
Al9          O22   1.898       .  S
Al9          O19   1.908       .  S
Al9          O14   1.792       .  S
O10          C17   1.256       .  A
O10         Al18   1.893       .  S
O11          C20   1.258       .  A
O11         Al18   1.908       .  S
O12         Al18   1.931       .  S
O13          C20   1.259       .  A
O14         Al18   1.791       .  S
O15          C16   1.262       .  A
C16        C1460   1.444       .  S
C17        C1532   1.442       .  S
C20        C1502   1.445       .  S
C21          O22   1.260       .  A
C21        C1476   1.444       .  S
O23          C38   1.260       .  A
O23         Al31   1.903       .  S
C24          O34   1.260       .  A
C24          O25   1.266       .  A
C24        C1406   1.443       .  S
O25         Al27   1.936       .  S
O26          C28   1.257       .  A
O26         Al27   1.899       .  S
Al27         O35   1.911       .  S
Al27         O37   1.930       .  S
Al27         O36   1.794       .  S
C28          O41   1.261       .  A
C28        C1432   1.446       .  S
O29          C39   1.259       .  A
O29         Al31   1.910       .  S
O30          C43   1.261       .  A
O30         Al40   1.904       .  S
Al31         O44   1.933       .  S
Al31         O41   1.926       .  S
Al31         O36   1.795       .  S
O32          C39   1.258       .  A
O32         Al40   1.909       .  S
O33          C42   1.257       .  A
O33         Al40   1.909       .  S
O34         Al40   1.895       .  S
O35          C42   1.259       .  A
O36         Al40   1.793       .  S
O37          C38   1.265       .  A
C38        C1390   1.447   1_565  S
C39        C1446   1.439       .  S
C42        C1418   1.443       .  S
C43          O44   1.265       .  A
C43        C1474   1.445       .  S
O45          C60   1.261       .  A
O45         Al53   1.902       .  S
C46          O56   1.260       .  A
C46          O47   1.265       .  A
C46        C1322   1.437       .  S
O47         Al49   1.929       .  S
O48          C50   1.256       .  A
O48         Al49   1.895       .  S
Al49         O57   1.910       .  S
Al49         O59   1.927       .  S
Al49         O58   1.793       .  S
C50          O63   1.260       .  A
C50        C1362   1.442       .  S
O51          C61   1.260       .  A
O51         Al53   1.913       .  S
O52          C65   1.262       .  A
O52         Al62   1.903       .  S
Al53         O66   1.931       .  S
Al53         O63   1.921       .  S
Al53         O58   1.793       .  S
O54          C61   1.258       .  A
O54         Al62   1.912       .  S
O55          C64   1.257       .  A
O55         Al62   1.911       .  S
O56         Al62   1.890       .  S
O57          C64   1.258       .  A
O58         Al62   1.791       .  S
O59          C60   1.264       .  A
C60        C1462   1.445   1_455  S
C61        C1376   1.441       .  S
C64        C1334   1.443       .  S
C65          O66   1.265       .  A
C65        C1348   1.442       .  S
O67          C82   1.261       .  A
O67         Al75   1.905       .  S
C68          O78   1.259       .  A
C68          O69   1.264       .  A
C68        C1236   1.439       .  S
O69         Al71   1.931       .  S
O70          C72   1.258       .  A
O70         Al71   1.900       .  S
Al71         O79   1.911       .  S
Al71         O81   1.927       .  S
Al71         O80   1.794       .  S
C72          O85   1.261       .  A
C72        C1264   1.445       .  S
O73          C83   1.260       .  A
O73         Al75   1.913       .  S
O74          C87   1.261       .  A
O74         Al84   1.902       .  S
Al75         O88   1.935       .  S
Al75         O85   1.925       .  S
Al75         O80   1.795       .  S
O76          C83   1.258       .  A
O76         Al84   1.907       .  S
O77          C86   1.258       .  A
O77         Al84   1.909       .  S
O78         Al84   1.892       .  S
O79          C86   1.259       .  A
O80         Al84   1.791       .  S
O81          C82   1.264       .  A
C82        C1294   1.446       .  S
C83        C1306   1.438       .  S
C86        C1250   1.442       .  S
C87          O88   1.265       .  A
C87        C1280   1.445       .  S
O89         C104   1.261       .  A
O89         Al97   1.910       .  S
C90         O100   1.261       .  A
C90          O91   1.262       .  A
C90        C1194   1.435       .  S
O91         Al93   1.916       .  S
O92          C94   1.256       .  A
O92         Al93   1.889       .  S
Al93        O101   1.903       .  S
Al93        O103   1.914       .  S
Al93        O102   1.790       .  S
C94         O107   1.262       .  A
C94        C1180   1.439       .  S
O95         C105   1.259       .  A
O95         Al97   1.911       .  S
O96         C109   1.264       .  A
O96        Al106   1.907       .  S
Al97        O110   1.927       .  S
Al97        O107   1.925       .  S
Al97        O102   1.791       .  S
O98         C105   1.258       .  A
O98        Al106   1.915       .  S
O99         C108   1.260       .  A
O99        Al106   1.921       .  S
O100       Al106   1.903       .  S
O101        C108   1.258       .  A
O102       Al106   1.794       .  S
O103        C104   1.260       .  A
C104       C1292   1.444       .  S
C105       C1222   1.443       .  S
C108       C1210   1.441       .  S
C109        O110   1.266       .  A
C109       C1350   1.443   1_545  S
O111        C126   1.261       .  A
O111       Al119   1.911       .  S
C112        O122   1.260       .  A
C112        O113   1.261       .  A
C112       C1126   1.439       .  S
O113       Al115   1.916       .  S
O114        C116   1.256       .  A
O114       Al115   1.890       .  S
Al115       O123   1.900       .  S
Al115       O125   1.918       .  S
Al115       O124   1.791       .  S
C116        O129   1.260       .  A
C116       C1168   1.437       .  S
O117        C127   1.259       .  A
O117       Al119   1.908       .  S
O118        C131   1.264       .  A
O118       Al128   1.912       .  S
Al119       O132   1.924       .  S
Al119       O129   1.921       .  S
Al119       O124   1.793       .  S
O120        C127   1.261       .  A
O120       Al128   1.921       .  S
O121        C130   1.262       .  A
O121       Al128   1.929       .  S
O122       Al128   1.905       .  S
O123        C130   1.258       .  A
O124       Al128   1.793       .  S
O125        C126   1.262       .  A
C126       C1392   1.445       .  S
C127       C1152   1.443       .  S
C130       C1138   1.445       .  S
C131        O132   1.263       .  A
C131       C1278   1.446       .  S
O133        C148   1.259       .  A
O133       Al141   1.897       .  S
C134        O144   1.259       .  A
C134        O135   1.263       .  A
C134       C1096   1.438       .  S
O135       Al137   1.926       .  S
O136        C138   1.259       .  A
O136       Al137   1.901       .  S
Al137       O145   1.908       .  S
Al137       O147   1.924       .  S
Al137       O146   1.791       .  S
C138        O151   1.262       .  A
C138       C1140   1.445       .  S
O139        C149   1.258       .  A
O139       Al141   1.902       .  S
O140        C153   1.260       .  A
O140       Al150   1.901       .  S
Al141       O154   1.931       .  S
Al141       O151   1.927       .  S
Al141       O146   1.792       .  S
O142        C149   1.259       .  A
O142       Al150   1.907       .  S
O143        C152   1.259       .  A
O143       Al150   1.910       .  S
O144       Al150   1.895       .  S
O145        C152   1.260       .  A
O146       Al150   1.790       .  S
O147        C148   1.263       .  A
C148       C1054   1.440       .  S
C149       C1082   1.434       .  S
C152       C1112   1.439       .  S
C153        O154   1.264       .  A
C153       C1070   1.443       .  S
O155        C170   1.266       .  A
O155       Al163   1.932       .  S
C156        O166   1.265       .  A
C156        O157   1.259       .  A
C156       C1014   1.435       .  S
O157       Al159   1.889       .  S
O158        C160   1.258       .  A
O158       Al159   1.910       .  S
Al159       O167   1.914       .  S
Al159       O169   1.900       .  S
Al159       O168   1.791       .  S
C160        O173   1.259       .  A
C160       C1124   1.439       .  S
O161        C171   1.262       .  A
O161       Al163   1.929       .  S
O162        C175   1.263       .  A
O162       Al172   1.925       .  S
Al163       O176   1.900       .  S
Al163       O173   1.910       .  S
Al163       O168   1.792       .  S
O164        C171   1.256       .  A
O164       Al172   1.895       .  S
O165        C174   1.259       .  A
O165       Al172   1.911       .  S
O166       Al172   1.927       .  S
O167        C174   1.258       .  A
O168       Al172   1.792       .  S
O169        C170   1.262       .  A
C170       C1056   1.441       .  S
C171       C1040   1.445       .  S
C174       C1026   1.444       .  S
C175        O176   1.260       .  A
C175        C998   1.443       .  S
O177        C192   1.261       .  A
O177       Al185   1.903       .  S
C178        O188   1.258       .  A
C178        O179   1.264       .  A
C178        C970   1.437       .  S
O179       Al181   1.929       .  S
O180        C182   1.257       .  A
O180       Al181   1.898       .  S
Al181       O189   1.909       .  S
Al181       O191   1.926       .  S
Al181       O190   1.793       .  S
C182        O195   1.261       .  A
C182        C956   1.444       .  S
O183        C193   1.260       .  A
O183       Al185   1.910       .  S
O184        C197   1.262       .  A
O184       Al194   1.903       .  S
Al185       O198   1.934       .  S
Al185       O195   1.925       .  S
Al185       O190   1.792       .  S
O186        C193   1.258       .  A
O186       Al194   1.906       .  S
O187        C196   1.258       .  A
O187       Al194   1.912       .  S
O188       Al194   1.889       .  S
O189        C196   1.259       .  A
O190       Al194   1.791       .  S
O191        C192   1.264       .  A
C192        C928   1.444       .  S
C193       C1320   1.436       .  S
C196        C984   1.442       .  S
C197        O198   1.265       .  A
C197        C942   1.445       .  S
O199        C214   1.265       .  A
O199       Al207   1.933       .  S
C200        O210   1.265       .  A
C200        O201   1.260       .  A
C200       C1182   1.440       .  S
O201       Al203   1.894       .  S
O202        C204   1.258       .  A
O202       Al203   1.907       .  S
Al203       O211   1.912       .  S
Al203       O213   1.904       .  S
Al203       O212   1.791       .  S
C204        O217   1.259       .  A
C204        C914   1.435       .  S
O205        C215   1.261       .  A
O205       Al207   1.925       .  S
O206        C219   1.264       .  A
O206       Al216   1.930       .  S
Al207       O220   1.897       .  S
Al207       O217   1.906       .  S
Al207       O212   1.794       .  S
O208        C215   1.257       .  A
O208       Al216   1.896       .  S
O209        C218   1.259       .  A
O209       Al216   1.909       .  S
O210       Al216   1.932       .  S
O211        C218   1.258       .  A
O212       Al216   1.793       .  S
O213        C214   1.262       .  A
C214        C930   1.445       .  S
C215        C902   1.443       .  S
C218       C1266   1.443       .  S
C219        O220   1.259       .  A
C219       C1068   1.444       .  S
O221        C236   1.260       .  A
O221       Al229   1.897       .  S
C222        O232   1.259       .  A
C222        O223   1.265       .  A
C222       C1448   1.439       .  S
O223       Al225   1.932       .  S
O224        C226   1.256       .  A
O224       Al225   1.893       .  S
Al225       O233   1.905       .  S
Al225       O235   1.930       .  S
Al225       O234   1.791       .  S
C226        O239   1.261       .  A
C226        C888   1.441       .  S
O227        C237   1.260       .  A
O227       Al229   1.909       .  S
O228        C241   1.262       .  A
O228       Al238   1.904       .  S
Al229       O242   1.931       .  S
Al229       O239   1.924       .  S
Al229       O234   1.792       .  S
O230        C237   1.259       .  A
O230       Al238   1.908       .  S
O231        C240   1.258       .  A
O231       Al238   1.911       .  S
O232       Al238   1.891       .  S
O233        C240   1.258       .  A
O234       Al238   1.789       .  S
O235        C236   1.265       .  A
C236        C858   1.442       .  S
C237        C874   1.435       .  S
C240       C1530   1.440       .  S
C241        O242   1.264       .  A
C241       C1000   1.443       .  S
O243        C258   1.266       .  A
O243       Al251   1.932       .  S
C244        O254   1.264       .  A
C244        O245   1.260       .  A
C244        C818   1.438       .  S
O245       Al247   1.896       .  S
O246        C248   1.258       .  A
O246       Al247   1.911       .  S
Al247       O255   1.914       .  S
Al247       O257   1.902       .  S
Al247       O256   1.792       .  S
C248        O261   1.258       .  A
C248        C844   1.439       .  S
O249        C259   1.262       .  A
O249       Al251   1.925       .  S
O250        C263   1.263       .  A
O250       Al260   1.926       .  S
Al251       O264   1.901       .  S
Al251       O261   1.907       .  S
Al251       O256   1.793       .  S
O252        C259   1.257       .  A
O252       Al260   1.895       .  S
O253        C262   1.260       .  A
O253       Al260   1.912       .  S
O254       Al260   1.928       .  S
O255        C262   1.259       .  A
O256       Al260   1.793       .  S
O257        C258   1.262       .  A
C258        C860   1.443       .  S
C259       C1336   1.443       .  S
C262        C832   1.444       .  S
C263        O264   1.259       .  A
C263        C944   1.446       .  S
O265        C280   1.261       .  A
O265       Al273   1.909       .  S
C266        O276   1.259       .  A
C266        O267   1.262       .  A
C266       C1516   1.439       .  S
O267       Al269   1.920       .  S
O268        C270   1.256       .  A
O268       Al269   1.886       .  S
Al269       O277   1.901       .  S
Al269       O279   1.920       .  S
Al269       O278   1.789       .  S
C270        O283   1.261       .  A
C270        C802   1.433       .  S
O271        C281   1.259       .  A
O271       Al273   1.906       .  S
O272        C285   1.262       .  A
O272       Al282   1.905       .  S
Al273       O286   1.923       .  S
Al273       O283   1.921       .  S
Al273       O278   1.791       .  S
O274        C281   1.259       .  A
O274       Al282   1.912       .  S
O275        C284   1.262       .  A
O275       Al282   1.922       .  S
O276       Al282   1.904       .  S
O277        C284   1.259       .  A
O278       Al282   1.792       .  S
O279        C280   1.261       .  A
C280        C776   1.445       .  S
C281       C1110   1.439       .  S
C284       C1364   1.440       .  S
C285        O286   1.264       .  A
C285        C790   1.441       .  S
O287        C302   1.260       .  A
O287       Al295   1.897       .  S
C288        O298   1.258       .  A
C288        O289   1.264       .  A
C288        C746   1.435       .  S
O289       Al291   1.926       .  S
O290        C292   1.257       .  A
O290       Al291   1.897       .  S
Al291       O299   1.909       .  S
Al291       O301   1.927       .  S
Al291       O300   1.790       .  S
C292        O305   1.261       .  A
C292       C1208   1.442       .  S
O293        C303   1.260       .  A
O293       Al295   1.907       .  S
O294        C307   1.261       .  A
O294       Al304   1.901       .  S
Al295       O308   1.930       .  S
Al295       O305   1.923       .  S
Al295       O300   1.792       .  S
O296        C303   1.260       .  A
O296       Al304   1.911       .  S
O297        C306   1.260       .  A
O297       Al304   1.918       .  S
O298       Al304   1.888       .  S
O299        C306   1.259       .  A
O300       Al304   1.788       .  S
O301        C302   1.265       .  A
C302        C732   1.440       .  S
C303       C1098   1.435       .  S
C306        C760   1.445       .  S
C307        O308   1.264       .  A
C307        C788   1.441       .  S
O309        C324   1.261       .  A
O309       Al317   1.903       .  S
C310        O320   1.259       .  A
C310        O311   1.265       .  A
C310        C872   1.436       .  S
O311       Al313   1.928       .  S
O312        C314   1.256       .  A
O312       Al313   1.899       .  S
Al313       O321   1.911       .  S
Al313       O323   1.929       .  S
Al313       O322   1.793       .  S
C314        O327   1.261       .  A
C314        C718   1.446       .  S
O315        C325   1.261       .  A
O315       Al317   1.914       .  S
O316        C329   1.262       .  A
O316       Al326   1.904       .  S
Al317       O330   1.932       .  S
Al317       O327   1.926       .  S
Al317       O322   1.793       .  S
O318        C325   1.259       .  A
O318       Al326   1.916       .  S
O319        C328   1.258       .  A
O319       Al326   1.914       .  S
O320       Al326   1.890       .  S
O321        C328   1.259       .  A
O322       Al326   1.792       .  S
O323        C324   1.265       .  A
C324        C774   1.446   1_554  S
C325       C1404   1.443       .  S
C328       C1042   1.445       .  S
C329        O330   1.265       .  A
C329        C704   1.443       .  S
O331        C346   1.260       .  A
O331       Al339   1.901       .  S
C332        O342   1.259       .  A
C332        O333   1.265       .  A
C332       C1308   1.439       .  S
O333       Al335   1.930       .  S
O334        C336   1.257       .  A
O334       Al335   1.898       .  S
Al335       O343   1.909       .  S
Al335       O345   1.925       .  S
Al335       O344   1.793       .  S
C336        O349   1.261       .  A
C336        C830   1.444       .  S
O337        C347   1.260       .  A
O337       Al339   1.912       .  S
O338        C351   1.262       .  A
O338       Al348   1.904       .  S
Al339       O352   1.933       .  S
Al339       O349   1.925       .  S
Al339       O344   1.793       .  S
O340        C347   1.258       .  A
O340       Al348   1.909       .  S
O341        C350   1.258       .  A
O341       Al348   1.913       .  S
O342       Al348   1.893       .  S
O343        C350   1.258       .  A
O344       Al348   1.791       .  S
O345        C346   1.264       .  A
C346        C676   1.443       .  S
C347        C690   1.439       .  S
C350       C1154   1.443       .  S
C351        O352   1.265       .  A
C351        C664   1.444       .  S
O353        C368   1.266       .  A
O353       Al361   1.933       .  S
C354        O364   1.265       .  A
C354        O355   1.259       .  A
C354        C634   1.438       .  S
O355       Al357   1.891       .  S
O356        C358   1.258       .  A
O356       Al357   1.911       .  S
Al357       O365   1.919       .  S
Al357       O367   1.903       .  S
Al357       O366   1.791       .  S
C358        O371   1.259       .  A
C358        C816   1.438       .  S
O359        C369   1.262       .  A
O359       Al361   1.928       .  S
O360        C373   1.265       .  A
O360       Al370   1.929       .  S
Al361       O374   1.897       .  S
Al361       O371   1.909       .  S
Al361       O366   1.793       .  S
O362        C369   1.256       .  A
O362       Al370   1.893       .  S
O363        C372   1.258       .  A
O363       Al370   1.908       .  S
O364       Al370   1.931       .  S
O365        C372   1.259       .  A
O366       Al370   1.791       .  S
O367        C368   1.262       .  A
C368        C678   1.443       .  S
C369       C1420   1.444   1_455  S
C372        C650   1.446       .  S
C373        O374   1.259       .  A
C373        C706   1.444   1_455  S
O375        C390   1.261       .  A
O375       Al383   1.908       .  S
C376        O386   1.260       .  A
C376        O377   1.262       .  A
C376        C916   1.436       .  S
O377       Al379   1.915       .  S
O378        C380   1.256       .  A
O378       Al379   1.887       .  S
Al379       O387   1.902       .  S
Al379       O389   1.913       .  S
Al379       O388   1.791       .  S
C380        O393   1.261       .  A
C380       C1196   1.436       .  S
O381        C391   1.260       .  A
O381       Al383   1.912       .  S
O382        C395   1.263       .  A
O382       Al392   1.909       .  S
Al383       O396   1.925       .  S
Al383       O393   1.923       .  S
Al383       O388   1.792       .  S
O384        C391   1.260       .  A
O384       Al392   1.919       .  S
O385        C394   1.261       .  A
O385       Al392   1.922       .  S
O386       Al392   1.902       .  S
O387        C394   1.258       .  A
O388       Al392   1.792       .  S
O389        C390   1.261       .  A
C390        C734   1.441       .  S
C391        C620   1.445       .  S
C394        C958   1.442       .  S
C395        O396   1.264       .  A
C395        C662   1.444       .  S
O397        C412   1.265       .  A
O397       Al405   1.928       .  S
C398        O408   1.264       .  A
C398        O399   1.258       .  A
C398        C804   1.433       .  S
O399       Al401   1.887       .  S
O400        C402   1.258       .  A
O400       Al401   1.911       .  S
Al401       O409   1.918       .  S
Al401       O411   1.894       .  S
Al401       O410   1.789       .  S
C402        O415   1.258       .  A
C402       C1490   1.438       .  S
O403        C413   1.262       .  A
O403       Al405   1.924       .  S
O404        C417   1.264       .  A
O404       Al414   1.929       .  S
Al405       O418   1.901       .  S
Al405       O415   1.908       .  S
Al405       O410   1.792       .  S
O406        C413   1.257       .  A
O406       Al414   1.895       .  S
O407        C416   1.260       .  A
O407       Al414   1.913       .  S
O408       Al414   1.929       .  S
O409        C416   1.259       .  A
O410       Al414   1.790       .  S
O411        C412   1.260       .  A
C412        C592   1.436       .  S
C413        C986   1.441       .  S
C416        C720   1.446       .  S
C417        O418   1.260       .  A
C417        C606   1.446       .  S
O419        C434   1.260       .  A
O419       Al427   1.899       .  S
C420        O430   1.259       .  A
C420        O421   1.264       .  A
C420       C1378   1.441       .  S
O421       Al423   1.932       .  S
O422        C424   1.257       .  A
O422       Al423   1.899       .  S
Al423       O431   1.908       .  S
Al423       O433   1.929       .  S
Al423       O432   1.792       .  S
C424        O437   1.262       .  A
C424        C648   1.445       .  S
O425        C435   1.259       .  A
O425       Al427   1.904       .  S
O426        C439   1.261       .  A
O426       Al436   1.904       .  S
Al427       O440   1.936       .  S
Al427       O437   1.928       .  S
Al427       O432   1.793       .  S
O428        C435   1.260       .  A
O428       Al436   1.912       .  S
O429        C438   1.259       .  A
O429       Al436   1.914       .  S
O430       Al436   1.893       .  S
O431        C438   1.259       .  A
O432       Al436   1.790       .  S
O433        C434   1.265       .  A
C434        C580   1.443   1_556  S
C435        C972   1.436       .  S
C438       C1224   1.442       .  S
C439        O440   1.265       .  A
C439        C608   1.446       .  S
O441        C456   1.260       .  A
O441       Al449   1.894       .  S
C442        O452   1.259       .  A
C442        O443   1.263       .  A
C442       C1084   1.435       .  S
O443       Al445   1.923       .  S
O444        C446   1.257       .  A
O444       Al445   1.900       .  S
Al445       O453   1.907       .  S
Al445       O455   1.921       .  S
Al445       O454   1.791       .  S
C446        O459   1.261       .  A
C446       C1504   1.445       .  S
O447        C457   1.259       .  A
O447       Al449   1.904       .  S
O448        C461   1.261       .  A
O448       Al458   1.905       .  S
Al449       O462   1.934       .  S
Al449       O459   1.927       .  S
Al449       O454   1.791       .  S
O450        C457   1.259       .  A
O450       Al458   1.910       .  S
O451        C460   1.258       .  A
O451       Al458   1.913       .  S
O452       Al458   1.890       .  S
O453        C460   1.259       .  A
O454       Al458   1.790       .  S
O455        C456   1.264       .  A
C456        C594   1.436   1_545  S
C457        C748   1.434       .  S
C460        C900   1.442       .  S
C461        O462   1.265       .  A
C461        C564   1.445       .  S
O463        C478   1.261       .  A
O463       Al471   1.903       .  S
C464        O474   1.259       .  A
C464        O465   1.265       .  A
C464        C692   1.441       .  S
O465       Al467   1.932       .  S
O466        C468   1.256       .  A
O466       Al467   1.900       .  S
Al467       O475   1.912       .  S
Al467       O477   1.930       .  S
Al467       O476   1.794       .  S
C468        O481   1.260       .  A
C468       C1028   1.446       .  S
O469        C479   1.261       .  A
O469       Al471   1.912       .  S
O470        C483   1.262       .  A
O470       Al480   1.905       .  S
Al471       O484   1.931       .  S
Al471       O481   1.924       .  S
Al471       O476   1.795       .  S
O472        C479   1.259       .  A
O472       Al480   1.910       .  S
O473        C482   1.257       .  A
O473       Al480   1.912       .  S
O474       Al480   1.893       .  S
O475        C482   1.259       .  A
O476       Al480   1.793       .  S
O477        C478   1.265       .  A
C478        C552   1.446       .  S
C479       C1238   1.439       .  S
C482        C622   1.445       .  S
C483        O484   1.264       .  A
C483        C538   1.444       .  S
O485        C500   1.261       .  A
O485       Al493   1.913       .  S
C486        O496   1.260       .  A
C486        O487   1.262       .  A
C486       C1166   1.436       .  S
O487       Al489   1.915       .  S
O488        C490   1.255       .  A
O488       Al489   1.886       .  S
Al489       O497   1.904       .  S
Al489       O499   1.914       .  S
Al489       O498   1.792       .  S
C490        O503   1.261       .  A
C490       C1012   1.435       .  S
O491        C501   1.260       .  A
O491       Al493   1.914       .  S
O492        C505   1.264       .  A
O492       Al502   1.909       .  S
Al493       O506   1.923       .  S
Al493       O503   1.921       .  S
Al493       O498   1.793       .  S
O494        C501   1.259       .  A
O494       Al502   1.916       .  S
O495        C504   1.261       .  A
O495       Al502   1.926       .  S
O496       Al502   1.904       .  S
O497        C504   1.259       .  A
O498       Al502   1.793       .  S
O499        C500   1.260       .  A
C500        C550   1.446       .  S
C501        C762   1.446   1_554  S
C504       C1434   1.445       .  S
C505        O506   1.265       .  A
C505        C566   1.443   1_554  S
O507        C522   1.261       .  A
O507       Al515   1.909       .  S
C508        O518   1.261       .  A
C508        O509   1.261       .  A
C508        C846   1.438       .  S
O509       Al511   1.914       .  S
O510        C512   1.256       .  A
O510       Al511   1.888       .  S
Al511       O519   1.899       .  S
Al511       O521   1.915       .  S
Al511       O520   1.790       .  S
C512        O525   1.262       .  A
C512        C636   1.438       .  S
O513        C523   1.259       .  A
O513       Al515   1.909       .  S
O514        C527   1.263       .  A
O514       Al524   1.910       .  S
Al515       O528   1.927       .  S
Al515       O525   1.927       .  S
Al515       O520   1.791       .  S
O516        C523   1.259       .  A
O516       Al524   1.916       .  S
O517        C526   1.261       .  A
O517       Al524   1.924       .  S
O518       Al524   1.907       .  S
O519        C526   1.258       .  A
O520       Al524   1.793       .  S
O521        C522   1.260       .  A
C522        C578   1.443       .  S
C523       C1252   1.443   1_565  S
C526        C886   1.440       .  S
C527        O528   1.265       .  A
C527        C536   1.445   1_565  S
C529        C537   1.450       .  S
C529        C530   1.402       .  A
C529        C534   1.404       .  A
C530        C531   1.401       .  A
C530        H539   1.083       .  S
C531        C532   1.402       .  A
C531        H540   1.084       .  S
C532        C535   1.450       .  S
C532        C533   1.404       .  A
C533        C534   1.405       .  A
C533        H541   1.083       .  S
C534        H542   1.084       .  S
C535        C536   1.212       .  T
C537        C538   1.212       .  T
C543        C551   1.451       .  S
C543        C544   1.405       .  A
C543        C548   1.402       .  A
C544        C545   1.406       .  A
C544        H553   1.083       .  S
C545        C546   1.404       .  A
C545        H554   1.083       .  S
C546        C549   1.451       .  S
C546        C547   1.402       .  A
C547        C548   1.401       .  A
C547        H555   1.083       .  S
C548        H556   1.083       .  S
C549        C550   1.213       .  T
C551        C552   1.213       .  T
C557        C565   1.449       .  S
C557        C558   1.402       .  A
C557        C562   1.403       .  A
C558        C559   1.402       .  A
C558        H567   1.083       .  S
C559        C560   1.403       .  A
C559        H568   1.083       .  S
C560        C563   1.450       .  S
C560        C561   1.403       .  A
C561        C562   1.404       .  A
C561        H569   1.083       .  S
C562        H570   1.083       .  S
C563        C564   1.212       .  T
C565        C566   1.211       .  T
C571        C579   1.448       .  S
C571        C572   1.403       .  A
C571        C576   1.402       .  A
C572        C573   1.404       .  A
C572        H581   1.084       .  S
C573        C574   1.403       .  A
C573        H582   1.083       .  S
C574        C577   1.449       .  S
C574        C575   1.403       .  A
C575        C576   1.401       .  A
C575        H583   1.084       .  S
C576        H584   1.083       .  S
C577        C578   1.211       .  T
C579        C580   1.211       .  T
C585        C593   1.442       .  S
C585        C586   1.402       .  A
C585        C590   1.401       .  A
C586        C587   1.401       .  A
C586        H595   1.083       .  S
C587        C588   1.402       .  A
C587        H596   1.083       .  S
C588        C591   1.442       .  S
C588        C589   1.402       .  A
C589        C590   1.398       .  A
C589        H597   1.083       .  S
C590        H598   1.083       .  S
C591        C592   1.207       .  T
C593        C594   1.207       .  T
C599        C607   1.451       .  S
C599        C600   1.402       .  A
C599        C604   1.405       .  A
C600        C601   1.401       .  A
C600        H609   1.083       .  S
C601        C602   1.402       .  A
C601        H610   1.083       .  S
C602        C605   1.451       .  S
C602        C603   1.404       .  A
C603        C604   1.406       .  A
C603        H611   1.083       .  S
C604        H612   1.083       .  S
C605        C606   1.212       .  T
C607        C608   1.213       .  T
C613        C621   1.451       .  S
C613        C614   1.403       .  A
C613        C618   1.404       .  A
C614        C615   1.404       .  A
C614        H623   1.083       .  S
C615        C616   1.404       .  A
C615        H624   1.083       .  S
C616        C619   1.451       .  S
C616        C617   1.403       .  A
C617        C618   1.403       .  A
C617        H625   1.083       .  S
C618        H626   1.084       .  S
C619        C620   1.212   1_554  T
C621        C622   1.212       .  T
C627        C635   1.443       .  S
C627        C628   1.401       .  A
C627        C632   1.402       .  A
C628        C629   1.399       .  A
C628        H637   1.084       .  S
C629        C630   1.401       .  A
C629        H638   1.083       .  S
C630        C633   1.443       .  S
C630        C631   1.402       .  A
C631        C632   1.401       .  A
C631        H639   1.084       .  S
C632        H640   1.083       .  S
C633        C634   1.207       .  T
C635        C636   1.208       .  T
C641        C649   1.451       .  S
C641        C642   1.403       .  A
C641        C646   1.403       .  A
C642        C643   1.403       .  A
C642        H651   1.083       .  S
C643        C644   1.403       .  A
C643        H652   1.083       .  S
C644        C647   1.450       .  S
C644        C645   1.403       .  A
C645        C646   1.403       .  A
C645        H653   1.083       .  S
C646        H654   1.083       .  S
C647        C648   1.212   1_554  T
C649        C650   1.212       .  T
C655        C663   1.450       .  S
C655        C656   1.404       .  A
C655        C660   1.402       .  A
C656        C657   1.404       .  A
C656        H665   1.083       .  S
C657        C658   1.403       .  A
C657        H666   1.084       .  S
C658        C661   1.449       .  S
C658        C659   1.403       .  A
C659        C660   1.402       .  A
C659        H667   1.083       .  S
C660        H668   1.084       .  S
C661        C662   1.211   1_554  T
C663        C664   1.212       .  T
C669        C677   1.448       .  S
C669        C670   1.402       .  A
C669        C674   1.403       .  A
C670        C671   1.402       .  A
C670        H679   1.084       .  S
C671        C672   1.403       .  A
C671        H680   1.083       .  S
C672        C675   1.448       .  S
C672        C673   1.403       .  A
C673        C674   1.402       .  A
C673        H681   1.084       .  S
C674        H682   1.083       .  S
C675        C676   1.211       .  T
C677        C678   1.211       .  T
C683        C691   1.446       .  S
C683        C684   1.401       .  A
C683        C688   1.403       .  A
C684        C685   1.400       .  A
C684        H693   1.083       .  S
C685        C686   1.402       .  A
C685        H694   1.084       .  S
C686        C689   1.445       .  S
C686        C687   1.403       .  A
C687        C688   1.403       .  A
C687        H695   1.083       .  S
C688        H696   1.083       .  S
C689        C690   1.209       .  T
C691        C692   1.210       .  T
C697        C705   1.449       .  S
C697        C698   1.404       .  A
C697        C702   1.402       .  A
C698        C699   1.405       .  A
C698        H707   1.083       .  S
C699        C700   1.404       .  A
C699        H708   1.083       .  S
C700        C703   1.448       .  S
C700        C701   1.402       .  A
C701        C702   1.400       .  A
C701        H709   1.084       .  S
C702        H710   1.083       .  S
C703        C704   1.211       .  T
C705        C706   1.211       .  T
C711        C719   1.451       .  S
C711        C712   1.403       .  A
C711        C716   1.403       .  A
C712        C713   1.402       .  A
C712        H721   1.083       .  S
C713        C714   1.403       .  A
C713        H722   1.083       .  S
C714        C717   1.451       .  S
C714        C715   1.404       .  A
C715        C716   1.405       .  A
C715        H723   1.083       .  S
C716        H724   1.083       .  S
C717        C718   1.213   1_556  T
C719        C720   1.212       .  T
C725        C733   1.447       .  S
C725        C726   1.403       .  A
C725        C730   1.402       .  A
C726        C727   1.403       .  A
C726        H735   1.083       .  S
C727        C728   1.403       .  A
C727        H736   1.083       .  S
C728        C731   1.446       .  S
C728        C729   1.402       .  A
C729        C730   1.400       .  A
C729        H737   1.084       .  S
C730        H738   1.083       .  S
C731        C732   1.209   1_455  T
C733        C734   1.210       .  T
C739        C747   1.439       .  S
C739        C740   1.402       .  A
C739        C744   1.401       .  A
C740        C741   1.401       .  A
C740        H749   1.083       .  S
C741        C742   1.402       .  A
C741        H750   1.084       .  S
C742        C745   1.440       .  S
C742        C743   1.400       .  A
C743        C744   1.397       .  A
C743        H751   1.083       .  S
C744        H752   1.084       .  S
C745        C746   1.206       .  T
C747        C748   1.205       .  T
C753        C761   1.451       .  S
C753        C754   1.404       .  A
C753        C758   1.402       .  A
C754        C755   1.405       .  A
C754        H763   1.083       .  S
C755        C756   1.404       .  A
C755        H764   1.083       .  S
C756        C759   1.451       .  S
C756        C757   1.403       .  A
C757        C758   1.402       .  A
C757        H765   1.083       .  S
C758        H766   1.083       .  S
C759        C760   1.212       .  T
C761        C762   1.213       .  T
C767        C775   1.451       .  S
C767        C768   1.403       .  A
C767        C772   1.404       .  A
C768        C769   1.404       .  A
C768        H777   1.083       .  S
C769        C770   1.404       .  A
C769        H778   1.083       .  S
C770        C773   1.451       .  S
C770        C771   1.403       .  A
C771        C772   1.403       .  A
C771        H779   1.083       .  S
C772        H780   1.083       .  S
C773        C774   1.213       .  T
C775        C776   1.212       .  T
C781        C789   1.447       .  S
C781        C782   1.402       .  A
C781        C786   1.403       .  A
C782        C783   1.400       .  A
C782        H791   1.083       .  S
C783        C784   1.402       .  A
C783        H792   1.083       .  S
C784        C787   1.447       .  S
C784        C785   1.403       .  A
C785        C786   1.404       .  A
C785        H793   1.083       .  S
C786        H794   1.083       .  S
C787        C788   1.210       .  T
C789        C790   1.210       .  T
C795        C803   1.439       .  S
C795        C796   1.402       .  A
C795        C800   1.401       .  A
C796        C797   1.399       .  A
C796        H805   1.083       .  S
C797        C798   1.401       .  A
C797        H806   1.083       .  S
C798        C801   1.438       .  S
C798        C799   1.401       .  A
C799        C800   1.398       .  A
C799        H807   1.084       .  S
C800        H808   1.083       .  S
C801        C802   1.205       .  T
C803        C804   1.205       .  T
C809        C817   1.443       .  S
C809        C810   1.401       .  A
C809        C814   1.402       .  A
C810        C811   1.399       .  A
C810        H819   1.084       .  S
C811        C812   1.402       .  A
C811        H820   1.083       .  S
C812        C815   1.443       .  S
C812        C813   1.402       .  A
C813        C814   1.401       .  A
C813        H821   1.084       .  S
C814        H822   1.083       .  S
C815        C816   1.208       .  T
C817        C818   1.208       .  T
C823        C831   1.450       .  S
C823        C824   1.403       .  A
C823        C828   1.403       .  A
C824        C825   1.404       .  A
C824        H833   1.083       .  S
C825        C826   1.404       .  A
C825        H834   1.083       .  S
C826        C829   1.449       .  S
C826        C827   1.402       .  A
C827        C828   1.402       .  A
C827        H835   1.083       .  S
C828        H836   1.083       .  S
C829        C830   1.211       .  T
C831        C832   1.212       .  T
C837        C845   1.443       .  S
C837        C838   1.402       .  A
C837        C842   1.402       .  A
C838        C839   1.403       .  A
C838        H847   1.083       .  S
C839        C840   1.403       .  A
C839        H848   1.083       .  S
C840        C843   1.444       .  S
C840        C841   1.401       .  A
C841        C842   1.399       .  A
C841        H849   1.084       .  S
C842        H850   1.084       .  S
C843        C844   1.208       .  T
C845        C846   1.208       .  T
C851        C859   1.448       .  S
C851        C852   1.402       .  A
C851        C856   1.403       .  A
C852        C853   1.401       .  A
C852        H861   1.083       .  S
C853        C854   1.403       .  A
C853        H862   1.084       .  S
C854        C857   1.448       .  S
C854        C855   1.403       .  A
C855        C856   1.403       .  A
C855        H863   1.083       .  S
C856        H864   1.083       .  S
C857        C858   1.210       .  T
C859        C860   1.211       .  T
C865        C873   1.441       .  S
C865        C866   1.401       .  A
C865        C870   1.402       .  A
C866        C867   1.397       .  A
C866        H875   1.084       .  S
C867        C868   1.400       .  A
C867        H876   1.084       .  S
C868        C871   1.441       .  S
C868        C869   1.403       .  A
C869        C870   1.402       .  A
C869        H877   1.083       .  S
C870        H878   1.083       .  S
C871        C872   1.207       .  T
C873        C874   1.207       .  T
C879        C887   1.446       .  S
C879        C880   1.403       .  A
C879        C884   1.402       .  A
C880        C881   1.403       .  A
C880        H889   1.083       .  S
C881        C882   1.403       .  A
C881        H890   1.083       .  S
C882        C885   1.446       .  S
C882        C883   1.402       .  A
C883        C884   1.400       .  A
C883        H891   1.083       .  S
C884        H892   1.084       .  S
C885        C886   1.209       .  T
C887        C888   1.209       .  T
C893        C901   1.448       .  S
C893        C894   1.403       .  A
C893        C898   1.402       .  A
C894        C895   1.404       .  A
C894        H903   1.083       .  S
C895        C896   1.403       .  A
C895        H904   1.083       .  S
C896        C899   1.447       .  S
C896        C897   1.402       .  A
C897        C898   1.401       .  A
C897        H905   1.083       .  S
C898        H906   1.083       .  S
C899        C900   1.210       .  T
C901        C902   1.211       .  T
C907        C915   1.441       .  S
C907        C908   1.402       .  A
C907        C912   1.401       .  A
C908        C909   1.400       .  A
C908        H917   1.084       .  S
C909        C910   1.401       .  A
C909        H918   1.083       .  S
C910        C913   1.441       .  S
C910        C911   1.402       .  A
C911        C912   1.400       .  A
C911        H919   1.084       .  S
C912        H920   1.083       .  S
C913        C914   1.206       .  T
C915        C916   1.207       .  T
C921        C929   1.450       .  S
C921        C922   1.404       .  A
C921        C926   1.402       .  A
C922        C923   1.405       .  A
C922        H931   1.083       .  S
C923        C924   1.404       .  A
C923        H932   1.083       .  S
C924        C927   1.450       .  S
C924        C925   1.402       .  A
C925        C926   1.401       .  A
C925        H933   1.083       .  S
C926        H934   1.083       .  S
C927        C928   1.212       .  T
C929        C930   1.212       .  T
C935        C943   1.451       .  S
C935        C936   1.403       .  A
C935        C940   1.404       .  A
C936        C937   1.403       .  A
C936        H945   1.083       .  S
C937        C938   1.403       .  A
C937        H946   1.083       .  S
C938        C941   1.451       .  S
C938        C939   1.403       .  A
C939        C940   1.404       .  A
C939        H947   1.083       .  S
C940        H948   1.083       .  S
C941        C942   1.212       .  T
C943        C944   1.212       .  T
C949        C957   1.448       .  S
C949        C950   1.403       .  A
C949        C954   1.403       .  A
C950        C951   1.403       .  A
C950        H959   1.083       .  S
C951        C952   1.403       .  A
C951        H960   1.083       .  S
C952        C955   1.448       .  S
C952        C953   1.403       .  A
C953        C954   1.402       .  A
C953        H961   1.083       .  S
C954        H962   1.083       .  S
C955        C956   1.211       .  T
C957        C958   1.211       .  T
C963        C971   1.441       .  S
C963        C964   1.402       .  A
C963        C968   1.402       .  A
C964        C965   1.400       .  A
C964        H973   1.083       .  S
C965        C966   1.401       .  A
C965        H974   1.084       .  S
C966        C969   1.442       .  S
C966        C967   1.402       .  A
C967        C968   1.400       .  A
C967        H975   1.083       .  S
C968        H976   1.084       .  S
C969        C970   1.207       .  T
C971        C972   1.207       .  T
C977        C985   1.446       .  S
C977        C978   1.403       .  A
C977        C982   1.402       .  A
C978        C979   1.403       .  A
C978        H987   1.083       .  S
C979        C980   1.404       .  A
C979        H988   1.083       .  S
C980        C983   1.447       .  S
C980        C981   1.402       .  A
C981        C982   1.400       .  A
C981        H989   1.083       .  S
C982        H990   1.083       .  S
C983        C984   1.210       .  T
C985        C986   1.210       .  T
C991        C999   1.448       .  S
C991        C992   1.402       .  A
C991        C996   1.404       .  A
C992        C993   1.400       .  A
C992       H1001   1.083       .  S
C993        C994   1.402       .  A
C993       H1002   1.083       .  S
C994        C997   1.448       .  S
C994        C995   1.404       .  A
C995        C996   1.405       .  A
C995       H1003   1.083       .  S
C996       H1004   1.083       .  S
C997        C998   1.211       .  T
C999       C1000   1.211       .  T
C1005      C1013   1.440       .  S
C1005      C1006   1.402       .  A
C1005      C1010   1.401       .  A
C1006      C1007   1.400       .  A
C1006      H1015   1.083       .  S
C1007      C1008   1.402       .  A
C1007      H1016   1.084       .  S
C1008      C1011   1.440       .  S
C1008      C1009   1.401       .  A
C1009      C1010   1.399       .  A
C1009      H1017   1.083       .  S
C1010      H1018   1.084       .  S
C1011      C1012   1.206       .  T
C1013      C1014   1.206       .  T
C1019      C1027   1.451       .  S
C1019      C1020   1.403       .  A
C1019      C1024   1.404       .  A
C1020      C1021   1.402       .  A
C1020      H1029   1.083       .  S
C1021      C1022   1.402       .  A
C1021      H1030   1.083       .  S
C1022      C1025   1.450       .  S
C1022      C1023   1.404       .  A
C1023      C1024   1.405       .  A
C1023      H1031   1.083       .  S
C1024      H1032   1.083       .  S
C1025      C1026   1.212       .  T
C1027      C1028   1.212       .  T
C1033      C1041   1.451       .  S
C1033      C1034   1.403       .  A
C1033      C1038   1.404       .  A
C1034      C1035   1.403       .  A
C1034      H1043   1.083       .  S
C1035      C1036   1.404       .  A
C1035      H1044   1.083       .  S
C1036      C1039   1.450       .  S
C1036      C1037   1.403       .  A
C1037      C1038   1.403       .  A
C1037      H1045   1.083       .  S
C1038      H1046   1.083       .  S
C1039      C1040   1.212       .  T
C1041      C1042   1.212       .  T
C1047      C1055   1.446       .  S
C1047      C1048   1.402       .  A
C1047      C1052   1.403       .  A
C1048      C1049   1.400       .  A
C1048      H1057   1.083       .  S
C1049      C1050   1.402       .  A
C1049      H1058   1.084       .  S
C1050      C1053   1.445       .  S
C1050      C1051   1.403       .  A
C1051      C1052   1.403       .  A
C1051      H1059   1.083       .  S
C1052      H1060   1.083       .  S
C1053      C1054   1.209       .  T
C1055      C1056   1.210       .  T
C1061      C1069   1.448       .  S
C1061      C1062   1.403       .  A
C1061      C1066   1.402       .  A
C1062      C1063   1.403       .  A
C1062      H1071   1.083       .  S
C1063      C1064   1.403       .  A
C1063      H1072   1.083       .  S
C1064      C1067   1.449       .  S
C1064      C1065   1.403       .  A
C1065      C1066   1.402       .  A
C1065      H1073   1.083       .  S
C1066      H1074   1.083       .  S
C1067      C1068   1.211       .  T
C1069      C1070   1.211       .  T
C1075      C1083   1.440       .  S
C1075      C1076   1.401       .  A
C1075      C1080   1.402       .  A
C1076      C1077   1.398       .  A
C1076      H1085   1.084       .  S
C1077      C1078   1.402       .  A
C1077      H1086   1.083       .  S
C1078      C1081   1.439       .  S
C1078      C1079   1.401       .  A
C1079      C1080   1.400       .  A
C1079      H1087   1.084       .  S
C1080      H1088   1.083       .  S
C1081      C1082   1.205       .  T
C1083      C1084   1.206       .  T
C1089      C1097   1.441       .  S
C1089      C1090   1.402       .  A
C1089      C1094   1.402       .  A
C1090      C1091   1.401       .  A
C1090      H1099   1.083       .  S
C1091      C1092   1.402       .  A
C1091      H1100   1.083       .  S
C1092      C1095   1.443       .  S
C1092      C1093   1.401       .  A
C1093      C1094   1.399       .  A
C1093      H1101   1.083       .  S
C1094      H1102   1.084       .  S
C1095      C1096   1.208       .  T
C1097      C1098   1.206       .  T
C1103      C1111   1.444       .  S
C1103      C1104   1.403       .  A
C1103      C1108   1.401       .  A
C1104      C1105   1.401       .  A
C1104      H1113   1.083       .  S
C1105      C1106   1.402       .  A
C1105      H1114   1.083       .  S
C1106      C1109   1.444       .  S
C1106      C1107   1.402       .  A
C1107      C1108   1.400       .  A
C1107      H1115   1.083       .  S
C1108      H1116   1.083       .  S
C1109      C1110   1.208       .  T
C1111      C1112   1.208       .  T
C1117      C1125   1.444       .  S
C1117      C1118   1.402       .  A
C1117      C1122   1.402       .  A
C1118      C1119   1.401       .  A
C1118      H1127   1.083       .  S
C1119      C1120   1.402       .  A
C1119      H1128   1.083       .  S
C1120      C1123   1.444       .  S
C1120      C1121   1.402       .  A
C1121      C1122   1.401       .  A
C1121      H1129   1.083       .  S
C1122      H1130   1.083       .  S
C1123      C1124   1.208       .  T
C1125      C1126   1.208       .  T
C1131      C1139   1.450       .  S
C1131      C1132   1.403       .  A
C1131      C1136   1.403       .  A
C1132      C1133   1.403       .  A
C1132      H1141   1.083       .  S
C1133      C1134   1.404       .  A
C1133      H1142   1.083       .  S
C1134      C1137   1.450       .  S
C1134      C1135   1.403       .  A
C1135      C1136   1.403       .  A
C1135      H1143   1.083       .  S
C1136      H1144   1.083       .  S
C1137      C1138   1.212       .  T
C1139      C1140   1.212       .  T
C1145      C1153   1.448       .  S
C1145      C1146   1.403       .  A
C1145      C1150   1.402       .  A
C1146      C1147   1.403       .  A
C1146      H1155   1.084       .  S
C1147      C1148   1.403       .  A
C1147      H1156   1.083       .  S
C1148      C1151   1.448       .  S
C1148      C1149   1.403       .  A
C1149      C1150   1.402       .  A
C1149      H1157   1.084       .  S
C1150      H1158   1.083       .  S
C1151      C1152   1.211   1_455  T
C1153      C1154   1.211       .  T
C1159      C1167   1.442       .  S
C1159      C1160   1.402       .  A
C1159      C1164   1.401       .  A
C1160      C1161   1.401       .  A
C1160      H1169   1.083       .  S
C1161      C1162   1.403       .  A
C1161      H1170   1.083       .  S
C1162      C1165   1.441       .  S
C1162      C1163   1.401       .  A
C1163      C1164   1.398       .  A
C1163      H1171   1.083       .  S
C1164      H1172   1.083       .  S
C1165      C1166   1.207       .  T
C1167      C1168   1.207       .  T
C1173      C1181   1.445       .  S
C1173      C1174   1.402       .  A
C1173      C1178   1.403       .  A
C1174      C1175   1.400       .  A
C1174      H1183   1.083       .  S
C1175      C1176   1.402       .  A
C1175      H1184   1.084       .  S
C1176      C1179   1.445       .  S
C1176      C1177   1.403       .  A
C1177      C1178   1.402       .  A
C1177      H1185   1.083       .  S
C1178      H1186   1.084       .  S
C1179      C1180   1.209       .  T
C1181      C1182   1.209       .  T
C1187      C1195   1.441       .  S
C1187      C1188   1.402       .  A
C1187      C1192   1.401       .  A
C1188      C1189   1.401       .  A
C1188      H1197   1.083       .  S
C1189      C1190   1.401       .  A
C1189      H1198   1.083       .  S
C1190      C1193   1.441       .  S
C1190      C1191   1.402       .  A
C1191      C1192   1.398       .  A
C1191      H1199   1.084       .  S
C1192      H1200   1.083       .  S
C1193      C1194   1.206       .  T
C1195      C1196   1.207       .  T
C1201      C1209   1.447       .  S
C1201      C1202   1.402       .  A
C1201      C1206   1.403       .  A
C1202      C1203   1.400       .  A
C1202      H1211   1.084       .  S
C1203      C1204   1.402       .  A
C1203      H1212   1.083       .  S
C1204      C1207   1.447       .  S
C1204      C1205   1.403       .  A
C1205      C1206   1.403       .  A
C1205      H1213   1.083   1_455  S
C1206      H1214   1.083       .  S
C1207      C1208   1.210   1_455  T
C1209      C1210   1.210       .  T
C1215      C1223   1.448       .  S
C1215      C1216   1.403       .  A
C1215      C1220   1.403       .  A
C1216      C1217   1.403       .  A
C1216      H1225   1.083       .  S
C1217      C1218   1.403       .  A
C1217      H1226   1.084       .  S
C1218      C1221   1.448       .  S
C1218      C1219   1.402       .  A
C1219      C1220   1.402       .  A
C1219      H1227   1.083       .  S
C1220      H1228   1.084       .  S
C1221      C1222   1.211   1_565  T
C1223      C1224   1.211       .  T
C1229      C1237   1.445       .  S
C1229      C1230   1.403       .  A
C1229      C1234   1.402       .  A
C1230      C1231   1.402       .  A
C1230      H1239   1.083       .  S
C1231      C1232   1.403       .  A
C1231      H1240   1.083       .  S
C1232      C1235   1.445       .  S
C1232      C1233   1.402       .  A
C1233      C1234   1.400       .  A
C1233      H1241   1.084       .  S
C1234      H1242   1.083       .  S
C1235      C1236   1.209       .  T
C1237      C1238   1.209       .  T
C1243      C1251   1.448       .  S
C1243      C1244   1.404       .  A
C1243      C1248   1.402       .  A
C1244      C1245   1.403       .  A
C1244      H1253   1.083       .  S
C1245      C1246   1.402       .  A
C1245      H1254   1.083       .  S
C1246      C1249   1.448       .  S
C1246      C1247   1.403       .  A
C1247      C1248   1.401       .  A
C1247      H1255   1.083       .  S
C1248      H1256   1.083       .  S
C1249      C1250   1.211       .  T
C1251      C1252   1.211       .  T
C1257      C1265   1.449       .  S
C1257      C1258   1.402       .  A
C1257      C1262   1.404       .  A
C1258      C1259   1.402       .  A
C1258      H1267   1.083       .  S
C1259      C1260   1.403       .  A
C1259      H1268   1.083       .  S
C1260      C1263   1.450       .  S
C1260      C1261   1.403       .  A
C1261      C1262   1.403       .  A
C1261      H1269   1.083       .  S
C1262      H1270   1.083       .  S
C1263      C1264   1.212       .  T
C1265      C1266   1.211       .  T
C1271      C1279   1.451       .  S
C1271      C1272   1.403       .  A
C1271      C1276   1.404       .  A
C1272      C1273   1.402       .  A
C1272      H1281   1.083       .  S
C1273      C1274   1.403       .  A
C1273      H1282   1.083       .  S
C1274      C1277   1.451       .  S
C1274      C1275   1.403       .  A
C1275      C1276   1.404       .  A
C1275      H1283   1.083       .  S
C1276      H1284   1.083       .  S
C1277      C1278   1.213   1_455  T
C1279      C1280   1.212       .  T
C1285      C1293   1.451       .  S
C1285      C1286   1.403       .  A
C1285      C1290   1.404       .  A
C1286      C1287   1.402       .  A
C1286      H1295   1.083       .  S
C1287      C1288   1.403       .  A
C1287      H1296   1.083       .  S
C1288      C1291   1.450       .  S
C1288      C1289   1.404       .  A
C1289      C1290   1.404       .  A
C1289      H1297   1.083       .  S
C1290      H1298   1.083       .  S
C1291      C1292   1.212       .  T
C1293      C1294   1.212       .  T
C1299      C1307   1.444       .  S
C1299      C1300   1.404       .  A
C1299      C1304   1.401       .  A
C1300      C1301   1.403       .  A
C1300      H1309   1.084       .  S
C1301      C1302   1.403       .  A
C1301      H1310   1.083       .  S
C1302      C1305   1.444       .  S
C1302      C1303   1.402       .  A
C1303      C1304   1.398       .  A
C1303      H1311   1.084       .  S
C1304      H1312   1.083       .  S
C1305      C1306   1.208       .  T
C1307      C1308   1.209       .  T
C1313      C1321   1.442       .  S
C1313      C1314   1.401       .  A
C1313      C1318   1.403       .  A
C1314      C1315   1.397       .  A
C1314      H1323   1.084       .  S
C1315      C1316   1.401       .  A
C1315      H1324   1.084       .  S
C1316      C1319   1.442       .  S
C1316      C1317   1.403       .  A
C1317      C1318   1.402       .  A
C1317      H1325   1.083       .  S
C1318      H1326   1.083       .  S
C1319      C1320   1.207       .  T
C1321      C1322   1.207       .  T
C1327      C1335   1.448       .  S
C1327      C1328   1.404       .  A
C1327      C1332   1.402       .  A
C1328      C1329   1.404       .  A
C1328      H1337   1.083       .  S
C1329      C1330   1.403       .  A
C1329      H1338   1.084       .  S
C1330      C1333   1.449       .  S
C1330      C1331   1.403       .  A
C1331      C1332   1.401       .  A
C1331      H1339   1.083       .  S
C1332      H1340   1.084       .  S
C1333      C1334   1.211       .  T
C1335      C1336   1.211       .  T
C1341      C1349   1.448       .  S
C1341      C1342   1.403       .  A
C1341      C1346   1.403       .  A
C1342      C1343   1.402       .  A
C1342      H1351   1.083       .  S
C1343      C1344   1.403       .  A
C1343      H1352   1.083       .  S
C1344      C1347   1.448       .  S
C1344      C1345   1.402       .  A
C1345      C1346   1.402       .  A
C1345      H1353   1.083       .  S
C1346      H1354   1.083       .  S
C1347      C1348   1.210       .  T
C1349      C1350   1.211       .  T
C1355      C1363   1.446       .  S
C1355      C1356   1.402       .  A
C1355      C1360   1.403       .  A
C1356      C1357   1.399       .  A
C1356      H1365   1.083       .  S
C1357      C1358   1.401       .  A
C1357      H1366   1.084       .  S
C1358      C1361   1.447       .  S
C1358      C1359   1.404       .  A
C1359      C1360   1.404       .  A
C1359      H1367   1.083       .  S
C1360      H1368   1.083       .  S
C1361      C1362   1.210   1_655  T
C1363      C1364   1.209       .  T
C1369      C1377   1.446       .  S
C1369      C1370   1.403       .  A
C1369      C1374   1.402       .  A
C1370      C1371   1.402       .  A
C1370      H1379   1.083       .  S
C1371      C1372   1.403       .  A
C1371      H1380   1.083       .  S
C1372      C1375   1.446       .  S
C1372      C1373   1.402       .  A
C1373      C1374   1.401       .  A
C1373      H1381   1.083       .  S
C1374      H1382   1.084       .  S
C1375      C1376   1.210       .  T
C1377      C1378   1.210       .  T
C1383      C1391   1.450       .  S
C1383      C1384   1.402       .  A
C1383      C1388   1.405       .  A
C1384      C1385   1.400       .  A
C1384      H1393   1.083       .  S
C1385      C1386   1.402       .  A
C1385      H1394   1.084       .  S
C1386      C1389   1.451       .  S
C1386      C1387   1.405       .  A
C1387      C1388   1.407       .  A
C1387      H1395   1.083       .  S
C1388      H1396   1.083       .  S
C1389      C1390   1.213       .  T
C1391      C1392   1.212       .  T
C1397      C1405   1.449       .  S
C1397      C1398   1.403       .  A
C1397      C1402   1.403       .  A
C1398      C1399   1.403       .  A
C1398      H1407   1.083       .  S
C1399      C1400   1.403       .  A
C1399      H1408   1.083       .  S
C1400      C1403   1.449       .  S
C1400      C1401   1.403       .  A
C1401      C1402   1.402       .  A
C1401      H1409   1.083       .  S
C1402      H1410   1.083       .  S
C1403      C1404   1.211       .  T
C1405      C1406   1.211       .  T
C1411      C1419   1.449       .  S
C1411      C1412   1.403       .  A
C1411      C1416   1.403       .  A
C1412      C1413   1.402       .  A
C1412      H1421   1.083       .  S
C1413      C1414   1.402       .  A
C1413      H1422   1.083       .  S
C1414      C1417   1.448       .  S
C1414      C1415   1.404       .  A
C1415      C1416   1.403       .  A
C1415      H1423   1.083       .  S
C1416      H1424   1.083       .  S
C1417      C1418   1.211       .  T
C1419      C1420   1.211       .  T
C1425      C1433   1.451       .  S
C1425      C1426   1.403       .  A
C1425      C1430   1.404       .  A
C1426      C1427   1.402       .  A
C1426      H1435   1.083       .  S
C1427      C1428   1.403       .  A
C1427      H1436   1.083       .  S
C1428      C1431   1.451       .  S
C1428      C1429   1.404       .  A
C1429      C1430   1.405       .  A
C1429      H1437   1.083       .  S
C1430      H1438   1.083       .  S
C1431      C1432   1.212   1_545  T
C1433      C1434   1.212       .  T
C1439      C1447   1.444       .  S
C1439      C1440   1.403       .  A
C1439      C1444   1.401       .  A
C1440      C1441   1.402       .  A
C1440      H1449   1.083       .  S
C1441      C1442   1.402       .  A
C1441      H1450   1.084       .  S
C1442      C1445   1.444       .  S
C1442      C1443   1.402       .  A
C1443      C1444   1.400       .  A
C1443      H1451   1.083       .  S
C1444      H1452   1.084       .  S
C1445      C1446   1.208       .  T
C1447      C1448   1.208       .  T
C1453      C1461   1.450       .  S
C1453      C1454   1.403       .  A
C1453      C1458   1.403       .  A
C1454      C1455   1.403       .  A
C1454      H1463   1.083       .  S
C1455      C1456   1.403       .  A
C1455      H1464   1.083       .  S
C1456      C1459   1.449       .  S
C1456      C1457   1.403       .  A
C1457      C1458   1.403       .  A
C1457      H1465   1.083       .  S
C1458      H1466   1.083       .  S
C1459      C1460   1.211       .  T
C1461      C1462   1.212       .  T
C1467      C1475   1.450       .  S
C1467      C1468   1.403       .  A
C1467      C1472   1.403       .  A
C1468      C1469   1.404       .  A
C1468      H1477   1.083       .  S
C1469      C1470   1.404       .  A
C1469      H1478   1.083       .  S
C1470      C1473   1.450       .  S
C1470      C1471   1.403       .  A
C1471      C1472   1.402       .  A
C1471      H1479   1.083       .  S
C1472      H1480   1.083       .  S
C1473      C1474   1.212       .  T
C1475      C1476   1.212       .  T
C1481      C1489   1.443       .  S
C1481      C1482   1.403       .  A
C1481      C1486   1.401       .  A
C1482      C1483   1.403       .  A
C1482      H1491   1.083       .  S
C1483      C1484   1.403       .  A
C1483      H1492   1.083       .  S
C1484      C1487   1.443       .  S
C1484      C1485   1.401       .  A
C1485      C1486   1.398       .  A
C1485      H1493   1.084       .  S
C1486      H1494   1.084       .  S
C1487      C1488   1.208       .  T
C1489      C1490   1.208       .  T
C1495      C1503   1.450       .  S
C1495      C1496   1.402       .  A
C1495      C1500   1.404       .  A
C1496      C1497   1.402       .  A
C1496      H1505   1.084       .  S
C1497      C1498   1.403       .  A
C1497      H1506   1.083       .  S
C1498      C1501   1.450       .  S
C1498      C1499   1.403       .  A
C1499      C1500   1.405       .  A
C1499      H1507   1.083       .  S
C1500      H1508   1.083   1_565  S
C1501      C1502   1.212       .  T
C1503      C1504   1.212   1_565  T
C1509      C1517   1.443       .  S
C1509      C1510   1.402       .  A
C1509      C1514   1.402       .  A
C1510      C1511   1.400       .  A
C1510      H1519   1.084       .  S
C1511      C1512   1.402       .  A
C1511      H1520   1.083       .  S
C1512      C1515   1.444       .  S
C1512      C1513   1.402       .  A
C1513      C1514   1.401       .  A
C1513      H1521   1.083       .  S
C1514      H1522   1.083       .  S
C1515      C1516   1.208       .  T
C1517      C1518   1.208       .  T
C1523      C1531   1.447       .  S
C1523      C1524   1.402       .  A
C1523      C1528   1.403       .  A
C1524      C1525   1.401       .  A
C1524      H1533   1.083       .  S
C1525      C1526   1.402       .  A
C1525      H1534   1.083       .  S
C1526      C1529   1.446       .  S
C1526      C1527   1.402       .  A
C1527      C1528   1.402       .  A
C1527      H1535   1.083       .  S
C1528      H1536   1.083       .  S
C1529      C1530   1.209       .  T
C1531      C1532   1.210       .  T
