geometry optimzed in LAMMPS
_audit_creation_date              2020-11-30 
_audit_creation_method            'lammps2cif' 
_symmetry_space_group_name_H-M    'P1' 
_symmetry_Int_Tables_number       1 
_symmetry_cell_setting            triclinic 
loop_ 
_symmetry_equiv_pos_as_xyz 
  x,y,z 
_cell_length_a                    38.06877195 
_cell_length_b                    38.00698066739252 
_cell_length_c                    44.84705839604137 
_cell_angle_alpha                 90.17557060076828 
_cell_angle_beta                  89.59630178060556 
_cell_angle_gamma                 120.09853345185437 
loop_ 
_atom_site_label 
_atom_site_type_symbol 
_atom_site_fract_x 
_atom_site_fract_y 
_atom_site_fract_z 
_atom_site_charge 
Fe1        Fe  0.67823020  0.83894258  0.12645747     1.65800
Fe2        Fe  0.58798128  0.79361052  0.16462367     1.73200
Fe3        Fe  0.58842592  0.79345615  0.08831786     1.54400
O4          O  0.62591338  0.84881233  0.06810084    -0.81000
O5          O  0.55111008  0.73388256  0.15207454    -0.79300
O6          O  0.68237984  0.87994751  0.09478785    -0.83500
O7          O  0.68217349  0.80211040  0.09414691    -0.78300
O8          O  0.55092197  0.81576096  0.10105705    -0.80100
O9          O  0.62533868  0.77612211  0.18443598    -0.82900
C10         C  0.65842946  0.77659491  0.07507960     0.97900
C11         C  0.66087692  0.87903149  0.07303245     1.05300
O12         O  0.61825759  0.80874432  0.12645042    -1.11800
O13         O  0.62144126  0.85147496  0.18181841    -0.74300
O14         O  0.68155687  0.87946256  0.15889682    -0.77800
O15         O  0.62240798  0.76942348  0.07132666    -0.78400
C16         C  0.65756764  0.88055028  0.17826486     0.96800
O17         O  0.68247625  0.80193038  0.15802857    -0.76400
O18         O  0.54611098  0.80893750  0.15038941    -0.81600
C19         C  0.53643209  0.71658362  0.12737646     0.99400
C20         C  0.53575372  0.81760527  0.12592488     1.05400
O21         O  0.54678027  0.73563338  0.10276237    -0.77200
C22         C  0.66027148  0.78088613  0.17961813     1.03700
Fe23       Fe  0.15493987  0.84033135  0.12421247     1.65800
Fe24       Fe  0.19977205  0.79547220  0.16202541     1.73200
Fe25       Fe  0.19888053  0.79448592  0.08596938     1.54400
O26         O  0.14430549  0.77882069  0.06604618    -0.81000
O27         O  0.25962517  0.81939032  0.14886709    -0.79300
O28         O  0.11124652  0.80030782  0.09499935    -0.83500
O29         O  0.18905722  0.87806046  0.08945339    -0.78300
O30         O  0.17438240  0.73476457  0.09871718    -0.80100
O31         O  0.21636092  0.85063650  0.18190907    -0.82900
C32         C  0.21575401  0.88018820  0.07119362     0.97900
C33         C  0.11306643  0.78130432  0.07225376     1.05300
O34         O  0.18445256  0.81007072  0.12409847    -1.11800
O35         O  0.14196345  0.77053714  0.17941639    -0.74300
O36         O  0.11717314  0.80686234  0.15910079    -0.77800
O37         O  0.22497267  0.85251819  0.06918632    -0.78400
C38         C  0.11490799  0.78060948  0.17766430     0.96800
O39         O  0.19500191  0.88388117  0.15344361    -0.76400
O40         O  0.18477994  0.73777939  0.14768487    -0.81600
C41         C  0.27578204  0.81920769  0.12406422     0.99400
C42         C  0.17396832  0.71818268  0.12331090     1.05400
O43         O  0.25575035  0.80808158  0.10002275    -0.77200
C44         C  0.21409018  0.88204839  0.17592259     1.03700
Fe45       Fe  0.15259856  0.31341159  0.12491309     1.65800
Fe46       Fe  0.19548232  0.40307909  0.08643395     1.73200
Fe47       Fe  0.19915543  0.40384810  0.16239523     1.54400
O48         O  0.14153264  0.37132393  0.18059743    -0.81000
O49         O  0.25257104  0.44728438  0.09981844    -0.79300
O50         O  0.11499592  0.30985570  0.16011218    -0.83500
O51         O  0.19344410  0.31045034  0.15359840    -0.78300
O52         O  0.18490658  0.44694298  0.14847399    -0.80100
O53         O  0.22119494  0.37089629  0.06887391    -0.82900
C54         C  0.21426109  0.33220509  0.17536760     0.97900
C55         C  0.11337960  0.33447758  0.17863910     1.05300
O56         O  0.18234829  0.37337314  0.12457329    -1.11800
O57         O  0.14047063  0.36362511  0.06725429    -0.74300
O58         O  0.10842535  0.30902938  0.09617030    -0.77800
O59         O  0.21649352  0.36578566  0.18170149    -0.78400
C60         C  0.10953069  0.32968512  0.07364749     0.96800
O61         O  0.18599530  0.30937777  0.08946609    -0.76400
O62         O  0.17107249  0.43831990  0.09998731    -0.81600
C63         C  0.27334839  0.45659745  0.12350941     0.99400
C64         C  0.17304242  0.45564338  0.12466120     1.05400
O65         O  0.25850792  0.43951955  0.14833643    -0.77200
C66         C  0.21199091  0.33389912  0.07072791     1.03700
Fe67       Fe  0.83805347  0.68388430  0.37519858     1.65800
Fe68       Fe  0.79419739  0.59398279  0.33704095     1.73200
Fe69       Fe  0.79376928  0.59352542  0.41302256     1.54400
O70         O  0.84892122  0.63221875  0.43263882    -0.81000
O71         O  0.73443073  0.55751328  0.34944695    -0.79300
O72         O  0.88152120  0.68782321  0.40455726    -0.83500
O73         O  0.80368245  0.68751156  0.40991183    -0.78300
O74         O  0.81713698  0.55715838  0.40023969    -0.80100
O75         O  0.77796262  0.63238874  0.31705725    -0.82900
C76         C  0.77761251  0.66292380  0.42848950     0.97900
C77         C  0.88001768  0.66634768  0.42668676     1.05300
O78         O  0.80866549  0.62383540  0.37511764    -1.11800
O79         O  0.85238732  0.62708854  0.32065742    -0.74300
O80         O  0.87663651  0.68853576  0.34064704    -0.77800
O81         O  0.76868643  0.62607926  0.43036430    -0.78400
C82         C  0.87961849  0.66420105  0.32268806     0.96800
O83         O  0.79800809  0.68685002  0.34576982    -0.76400
O84         O  0.80813706  0.55092129  0.35123942    -0.81600
C85         C  0.71743237  0.54118378  0.37400751     0.99400
C86         C  0.81751006  0.54092735  0.37558790     1.05400
O87         O  0.73637484  0.55074413  0.39859940    -0.77200
C88         C  0.77951178  0.66572912  0.32309072     1.03700
Fe89       Fe  0.83738711  0.15632367  0.37577731     1.65800
Fe90       Fe  0.79100649  0.19868496  0.41506885     1.73200
Fe91       Fe  0.78995813  0.19897175  0.33924017     1.54400
O92         O  0.84450530  0.21519945  0.31786998    -0.81000
O93         O  0.73059794  0.17159489  0.40379982    -0.79300
O94         O  0.88095820  0.19884131  0.34735879    -0.83500
O95         O  0.80544450  0.11920422  0.34011977    -0.78300
O96         O  0.81373176  0.25915442  0.35168543    -0.80100
O97         O  0.77893321  0.14498620  0.43530106    -0.82900
C98         C  0.77640849  0.11477501  0.32369854     0.97900
C99         C  0.87721219  0.21553146  0.32402839     1.05300
O100        O  0.80617345  0.18472556  0.37669018    -1.11800
O101        O  0.84977927  0.22725539  0.43032638    -0.74300
O102        O  0.87344012  0.18890738  0.41149335    -0.77800
O103        O  0.76435214  0.14040436  0.32333218    -0.78400
C104        C  0.87622820  0.21631083  0.42927213     0.96800
O105        O  0.79696709  0.11112541  0.40404158    -0.76400
O106        O  0.80087802  0.25439762  0.40043390    -0.81600
C107        C  0.71373522  0.17240101  0.37971339     0.99400
C108        C  0.81144039  0.27455794  0.37629864     1.05400
O109        O  0.73294685  0.18420707  0.35512882    -0.77200
C110        C  0.78014105  0.11331791  0.42796080     1.03700
Fe111      Fe  0.31218915  0.15686345  0.37298472     1.65800
Fe112      Fe  0.40121319  0.19940178  0.41200943     1.73200
Fe113      Fe  0.40344280  0.20322268  0.33563776     1.54400
O114        O  0.36739207  0.14698734  0.31599066    -0.81000
O115        O  0.44183878  0.25835223  0.40012142    -0.79300
O116        O  0.30932910  0.11571802  0.34169003    -0.83500
O117        O  0.30876857  0.19296447  0.33984694    -0.78300
O118        O  0.44267929  0.18350646  0.34848159    -0.80100
O119        O  0.36511540  0.22012385  0.43097167    -0.82900
C120        C  0.33260809  0.21750481  0.32022442     0.97900
C121        C  0.33225185  0.11654255  0.32067846     1.05300
O122        O  0.37229499  0.18653696  0.37351601    -1.11800
O123        O  0.36523951  0.14214515  0.42910013    -0.74300
O124        O  0.30615497  0.11569269  0.40575811    -0.77800
O125        O  0.36901622  0.22550829  0.31736746    -0.78400
C126        C  0.32907867  0.11375721  0.42531063     0.96800
O127        O  0.30852232  0.19498633  0.40423918    -0.76400
O128        O  0.44091027  0.18047714  0.39803894    -0.81600
C129        C  0.45556023  0.27773103  0.37591565     0.99400
C130        C  0.45455913  0.17675736  0.37304725     1.05400
O131        O  0.44319360  0.26147351  0.35051591    -0.77200
C132        C  0.33073872  0.21656521  0.42558726     1.03700
C133        C  0.61542992  0.16606867  0.40388953    -0.27500
C134        C  0.59194747  0.15135032  0.37793642     0.06100
C135        C  0.60733352  0.13938596  0.35372354     0.25700
C136        C  0.64641093  0.14467210  0.35486715    -0.12000
C137        C  0.67051176  0.16114172  0.38034272    -0.25900
C138        C  0.65412765  0.17056946  0.40526267     0.36500
C139        C  0.55371872  0.15271161  0.37532584     0.06100
F140        F  0.58494096  0.12337956  0.32872520    -0.19700
H141        H  0.65822090  0.13669059  0.33554565     0.15900
F142        F  0.67661889  0.18706050  0.43015447    -0.23400
H143        H  0.60473698  0.17619862  0.42266179     0.17700
C144        C  0.52541686  0.14015610  0.39894439     0.25700
C145        C  0.49248566  0.14681356  0.39765530    -0.12000
C146        C  0.48679098  0.16567560  0.37270204    -0.26000
C147        C  0.51411520  0.17654932  0.34850880     0.36600
C148        C  0.54725704  0.17033741  0.34998635    -0.27600
F149        F  0.52984002  0.12190204  0.42345473    -0.19700
H150        H  0.47174475  0.13776154  0.41645710     0.15900
F151        F  0.51036922  0.19543702  0.32410485    -0.23500
H152        H  0.56897677  0.18111469  0.33175901     0.17800
C153        C  0.61764006  0.45152166  0.34901189    -0.27500
C154        C  0.59546411  0.43944726  0.37585448     0.06100
C155        C  0.61238577  0.46341945  0.40150459     0.25700
C156        C  0.65151078  0.49734149  0.40053736    -0.12000
C157        C  0.67429347  0.50845168  0.37392057    -0.25900
C158        C  0.65641020  0.48580508  0.34789151     0.36500
C159        C  0.55683884  0.39989027  0.37741279     0.06100
F160        F  0.59138574  0.45373219  0.42764408    -0.19700
H161        H  0.66426951  0.51451164  0.42079715     0.15900
F162        F  0.67719724  0.49514349  0.32167035    -0.23400
H163        H  0.60580138  0.43329569  0.32908269     0.17700
C164        C  0.52767403  0.38743040  0.35463389     0.25700
C165        C  0.49416100  0.34796520  0.35457031    -0.12000
C166        C  0.48867609  0.32052218  0.37746545    -0.26000
C167        C  0.51688689  0.33356654  0.40090110     0.36600
C168        C  0.55069554  0.37264411  0.40064063    -0.27600
F169        F  0.53173023  0.41324063  0.33229164    -0.19700
H170        H  0.47264505  0.33870463  0.33643787     0.15900
F171        F  0.51328114  0.30778662  0.42315463    -0.23500
H172        H  0.57308345  0.38093586  0.41804849     0.17800
C173        C  0.81006433  0.36995926  0.39932221    -0.27500
C174        C  0.83233563  0.39700863  0.37621088     0.06100
C175        C  0.84996549  0.38434011  0.35403634     0.25700
C176        C  0.84353215  0.34467293  0.35428867    -0.12000
C177        C  0.82024525  0.31725006  0.37700260    -0.25900
C178        C  0.80420221  0.33067102  0.39990129     0.36500
C179        C  0.83462497  0.43716956  0.37487879     0.06100
F180        F  0.87361456  0.41032001  0.33225021    -0.19700
H181        H  0.85678441  0.33541128  0.33670096     0.15900
F182        F  0.78124982  0.30537836  0.42225381    -0.23400
H183        H  0.79593617  0.37880203  0.41653685     0.17700
C184        C  0.82470005  0.45028317  0.34860326     0.25700
C185        C  0.82148386  0.48529646  0.34873504    -0.12000
C186        C  0.82723476  0.50765079  0.37511851    -0.26000
C187        C  0.83870909  0.49537580  0.40115964     0.36600
C188        C  0.84247213  0.46061594  0.40089123    -0.27600
F189        F  0.81510172  0.42773092  0.32329639    -0.19700
H190        H  0.81242420  0.49368484  0.32833640     0.15900
F191        F  0.84493009  0.51595572  0.42718557    -0.23500
H192        H  0.85033664  0.45122832  0.42138331     0.17800
C193        C  0.00748595  0.25972423  0.03746935    -0.27500
C194        C  0.00885981  0.28315443  0.01294733     0.06100
C195        C  0.04271065  0.32193621  0.00874706     0.25700
C196        C  0.07492454  0.33697662  0.02880004    -0.12000
C197        C  0.07396380  0.31365619  0.05349814    -0.25900
C198        C  0.03959260  0.27474901  0.05770383     0.36500
C199        C  0.97533112  0.26663665  0.49137526     0.06100
F200        F  0.04507408  0.34472344  0.98474281    -0.19700
H201        H  0.10091055  0.36686442  0.02470751     0.15900
F202        F  0.03707475  0.25089225  0.08102006    -0.23400
H203        H  0.98143299  0.22964527  0.04088166     0.17700
C204        C  0.96808702  0.23358783  0.47327029     0.25700
C205        C  0.93644598  0.21812647  0.45272828    -0.12000
C206        C  0.91107255  0.23501749  0.45009126    -0.26000
C207        C  0.91852493  0.26830593  0.46842168     0.36600
C208        C  0.95064089  0.28407317  0.48869013    -0.27600
F209        F  0.99194302  0.21655706  0.47525943    -0.19700
H210        H  0.93151538  0.19245362  0.43917360     0.15900
F211        F  0.89487011  0.28560983  0.46697146    -0.23500
H212        H  0.95599407  0.30961624  0.00259388     0.17800
C213        C  0.93746116  0.25565317  0.25199824    -0.27500
C214        C  0.97736350  0.27024586  0.26165391     0.06100
C215        C  0.98439870  0.26751446  0.29208506     0.25700
C216        C  0.95185043  0.24991813  0.31234768    -0.12000
C217        C  0.91179934  0.23531206  0.30271350    -0.25900
C218        C  0.90498716  0.23853177  0.27222431     0.36500
C219        C  0.01131619  0.28731979  0.23975427     0.06100
F220        F  0.02261752  0.28074398  0.30202669    -0.19700
H221        H  0.95798835  0.24770805  0.33562307     0.15900
F222        F  0.86679726  0.22386349  0.26168874    -0.23400
H223        H  0.93144463  0.25744482  0.22862772     0.17700
C224        C  0.01167652  0.26374504  0.21569360     0.25700
C225        C  0.04452845  0.27946847  0.19574359    -0.12000
C226        C  0.07756527  0.31924495  0.19908609    -0.26000
C227        C  0.07629037  0.34332996  0.22268687     0.36600
C228        C  0.04366280  0.32725841  0.24289033    -0.27600
F229        F  0.98080471  0.22498934  0.21203042    -0.19700
H230        H  0.04421715  0.26018783  0.17780466     0.15900
F231        F  0.10672105  0.38221436  0.22666763    -0.23500
H232        H  0.04357994  0.34607723  0.26104914     0.17800
C233        C  0.26159564  0.23576105  0.27192653    -0.27500
C234        C  0.28904200  0.27012155  0.25548784     0.06100
C235        C  0.33079494  0.28806004  0.26115786     0.25700
C236        C  0.34470770  0.27126685  0.28259365    -0.12000
C237        C  0.31724698  0.23664240  0.29906298    -0.25900
C238        C  0.27535744  0.21920952  0.29357621     0.36500
C239        C  0.27340809  0.28735100  0.23309969     0.06100
F240        F  0.35813481  0.32114306  0.24545073    -0.19700
H241        H  0.37709951  0.28529523  0.28619344     0.15900
F242        F  0.24762237  0.18541866  0.30840653    -0.23400
H243        H  0.22926970  0.22177427  0.26802793     0.17700
C244        C  0.24851507  0.26320907  0.20972892     0.25700
C245        C  0.23029706  0.27830983  0.19058908    -0.12000
C246        C  0.23631131  0.31771258  0.19446151    -0.26000
C247        C  0.26263454  0.34238293  0.21730430     0.36600
C248        C  0.28098097  0.32724607  0.23628145    -0.27600
F249        F  0.24160729  0.22486507  0.20556911    -0.19700
H250        H  0.21070570  0.25869816  0.17311386     0.15900
F251        F  0.27021177  0.38090388  0.22180845    -0.23500
H252        H  0.30008132  0.34627891  0.25419390     0.17800
C253        C  0.28403453  0.32983003  0.01316540    -0.27500
C254        C  0.26496962  0.28800867  0.00715659     0.06100
C255        C  0.22932093  0.26134538  0.02286329     0.25700
C256        C  0.21289922  0.27639378  0.04393545    -0.12000
C257        C  0.23138812  0.31837904  0.04960156    -0.25900
C258        C  0.26735820  0.34502326  0.03396618     0.36500
C259        C  0.28274897  0.27217704  0.48500146     0.06100
F260        F  0.21070076  0.22061307  0.01816090    -0.19700
H261        H  0.18521997  0.25511521  0.05547672     0.15900
F262        F  0.28666801  0.38574130  0.03884786    -0.23400
H263        H  0.31164730  0.35081516  0.50141028     0.17700
C264        C  0.25961885  0.24792056  0.46103107     0.25700
C265        C  0.27575572  0.23082935  0.44148714    -0.12000
C266        C  0.31536063  0.23758306  0.44533010    -0.26000
C267        C  0.33906961  0.26337438  0.46871666     0.36600
C268        C  0.32281850  0.28045351  0.48823198    -0.27600
F269        F  0.22141024  0.24087029  0.45644238    -0.19700
H270        H  0.25683715  0.21171562  0.42356570     0.15900
F271        F  0.37776097  0.27178226  0.47312335    -0.23500
H272        H  0.34124473  0.29939403  0.00641738     0.17800
C273        C  0.25718701  0.01878660  0.46925696    -0.27500
C274        C  0.28445281  0.01339827  0.48689501     0.06100
C275        C  0.32633760  0.03960584  0.48293657     0.25700
C276        C  0.34051398  0.07144019  0.46234814    -0.12000
C277        C  0.31327867  0.07765879  0.44513084    -0.25900
C278        C  0.27130025  0.05043765  0.44847861     0.36500
C279        C  0.26886610  0.98072129  0.00958717     0.06100
F280        F  0.35350468  0.03537294  0.99976139    -0.19700
H281        H  0.37298902  0.09166266  0.46021912     0.15900
F282        F  0.24374518  0.05503757  0.43247026    -0.23400
H283        H  0.22476380  0.99849210  0.47174760     0.17700
C284        C  0.24046235  0.97761362  0.03110559     0.25700
C285        C  0.22425832  0.94554538  0.05152091    -0.12000
C286        C  0.23596434  0.91582643  0.05091898    -0.26000
C287        C  0.26556377  0.91983788  0.02990623     0.36600
C288        C  0.28173083  0.95200361  0.00949144    -0.27600
F289        F  0.22851073  0.00576131  0.03247940    -0.19700
H290        H  0.20197648  0.94371490  0.06752144     0.15900
F291        F  0.27848925  0.89243934  0.02858502    -0.23500
H292        H  0.30364889  0.95396106  0.49308903     0.17800
C293        C  0.25536417  0.98741498  0.20988716    -0.27500
C294        C  0.26908963  0.98228532  0.23757351     0.06100
C295        C  0.26537510  0.94468381  0.24468433     0.25700
C296        C  0.24820412  0.91265648  0.22428865    -0.12000
C297        C  0.23383057  0.91728788  0.19655210    -0.25900
C298        C  0.23756261  0.95520093  0.18956934     0.36500
C299        C  0.28622876  0.01592786  0.25929839     0.06100
F300        F  0.27860516  0.93906383  0.27130950    -0.19700
H301        H  0.24563787  0.88393289  0.23049750     0.15900
F302        F  0.22397686  0.96127516  0.16326646    -0.23400
H303        H  0.25782597  0.01627726  0.20424938     0.17700
C304        C  0.32277513  0.05186545  0.25324828     0.25700
C305        C  0.33810940  0.08399056  0.27365309    -0.12000
C306        C  0.31697232  0.08103148  0.30029257    -0.26000
C307        C  0.28043546  0.04453575  0.30635840     0.36600
C308        C  0.26549561  0.01231641  0.28606603    -0.27600
F309        F  0.34366434  0.05575954  0.22764779    -0.19700
H310        H  0.36620511  0.11151810  0.26826228     0.15900
F311        F  0.25882074  0.03988695  0.33170657    -0.23500
H312        H  0.23721785  0.98469168  0.29096701     0.17800
C313        C  0.02264182  0.76144155  0.22343951    -0.27500
C314        C  0.01669906  0.72883289  0.24149425     0.06100
C315        C  0.04221577  0.71231961  0.23777508     0.25700
C316        C  0.07361211  0.72880299  0.21665004    -0.12000
C317        C  0.07996706  0.76184206  0.19869278    -0.25900
C318        C  0.05380189  0.77782196  0.20221798     0.36500
C319        C  0.98325608  0.71188694  0.26365519     0.06100
F320        F  0.03745073  0.68096283  0.25508951    -0.19700
H321        H  0.09317393  0.71583862  0.21454687     0.15900
F322        F  0.05862953  0.80981676  0.18567416    -0.23400
H323        H  0.00289047  0.77417271  0.22570417     0.17700
C324        C  0.97901563  0.73730977  0.28440396     0.25700
C325        C  0.94576364  0.72145511  0.30388254    -0.12000
C326        C  0.91596088  0.67997366  0.30301055    -0.26000
C327        C  0.92087596  0.65440880  0.28256299     0.36600
C328        C  0.95424521  0.67034785  0.26318899    -0.27600
F329        F  0.00710447  0.77750294  0.28586827    -0.19700
H330        H  0.94314350  0.74191947  0.31940119     0.15900
F331        F  0.89320214  0.61413658  0.28074670    -0.23500
H332        H  0.95685551  0.65036223  0.24718209     0.17800
C333        C  0.00860008  0.74183585  0.03818143    -0.27500
C334        C  0.01402575  0.72959022  0.00973286     0.06100
C335        C  0.05173956  0.73343349  0.00239177     0.25700
C336        C  0.08333656  0.74951569  0.02303634    -0.12000
C337        C  0.07817258  0.76222872  0.05145068    -0.25900
C338        C  0.04015150  0.75780623  0.05891903     0.36500
C339        C  0.98017562  0.71265669  0.48801617     0.06100
F340        F  0.05787124  0.72094427  0.47545442    -0.19700
H341        H  0.11212821  0.75242187  0.01653847     0.15900
F342        F  0.03323676  0.76870173  0.08622775    -0.23400
H343        H  0.97989526  0.73941912  0.04428289     0.17700
C344        C  0.94118654  0.68183725  0.49661153     0.25700
C345        C  0.90921076  0.66666068  0.47635947    -0.12000
C346        C  0.91520081  0.68187192  0.44709263    -0.26000
C347        C  0.95442193  0.71231213  0.43828014     0.36600
C348        C  0.98650580  0.72749714  0.45862108    -0.27600
F349        F  0.93404393  0.66594454  0.52453852    -0.19700
H350        H  0.87943811  0.64325768  0.48383018     0.15900
F351        F  0.96193697  0.72715323  0.41002443    -0.23500
H352        H  0.01626395  0.75135868  0.45151134     0.17800
C353        C  0.14239880  0.61147416  0.14945439    -0.27500
C354        C  0.15171465  0.59572975  0.12412605     0.06100
C355        C  0.16408415  0.61897479  0.09779373     0.25700
C356        C  0.16905920  0.65793312  0.09736375    -0.12000
C357        C  0.16243081  0.67478408  0.12322963    -0.25900
C358        C  0.14792149  0.65074698  0.14914669     0.36500
C359        C  0.15252389  0.55716663  0.12599921     0.06100
F360        F  0.17423092  0.60532437  0.07303766    -0.19700
H361        H  0.18033047  0.67577765  0.07717164     0.15900
F362        F  0.13971633  0.66535521  0.17430171    -0.23400
H363        H  0.13201998  0.59378971  0.16977434     0.17700
C364        C  0.17375094  0.55120517  0.14912677     0.25700
C365        C  0.17864155  0.51721122  0.14906024    -0.12000
C366        C  0.16307434  0.48865738  0.12576753    -0.26000
C367        C  0.14065805  0.49388432  0.10309768     0.36600
C368        C  0.13525459  0.52770955  0.10340937    -0.27600
F369        F  0.19205633  0.57952546  0.17084239    -0.19700
H370        H  0.19634130  0.51429436  0.16666718     0.15900
F371        F  0.12441776  0.46672986  0.08043888    -0.23500
H372        H  0.11832301  0.53139965  0.08558983     0.17800
C373        C  0.72608595  0.98310064  0.21462791    -0.27500
C374        C  0.70386302  0.98042684  0.24046212     0.06100
C375        C  0.66520904  0.94616166  0.24465357     0.25700
C376        C  0.64986414  0.91447295  0.22386159    -0.12000
C377        C  0.67264779  0.91634058  0.19840598    -0.25900
C378        C  0.71069288  0.95160115  0.19368458     0.36500
C379        C  0.72144902  0.01338244  0.26295410     0.06100
F380        F  0.64298471  0.94257240  0.26945011    -0.19700
H381        H  0.62050869  0.88789894  0.22820605     0.15900
F382        F  0.73326492  0.95571810  0.16898842    -0.23400
H383        H  0.75557617  0.00970984  0.21071984     0.17700
C384        C  0.75961635  0.02556068  0.27547257     0.25700
C385        C  0.77682221  0.05783105  0.29575156    -0.12000
C386        C  0.75650036  0.07884426  0.30374159    -0.26000
C387        C  0.71776408  0.06586953  0.29170182     0.36600
C388        C  0.70048530  0.03338721  0.27158861    -0.27600
F389        F  0.78014496  0.00604838  0.26819839    -0.19700
H390        H  0.80652504  0.06692520  0.30471843     0.15900
F391        F  0.69644328  0.08441979  0.29937055    -0.23500
H392        H  0.67098094  0.02433583  0.26225049     0.17800
C393        C  0.73337680  0.97906446  0.03480861    -0.27500
C394        C  0.71009832  0.97870457  0.01064697     0.06100
C395        C  0.67037412  0.94609646  0.00730934     0.25700
C396        C  0.65427428  0.91417717  0.02793437    -0.12000
C397        C  0.67762660  0.91411988  0.05215250    -0.25900
C398        C  0.71754481  0.94713892  0.05533665     0.36500
C399        C  0.72745794  0.01280147  0.48927471     0.06100
F400        F  0.64698962  0.94552325  0.48439718    -0.19700
H401        H  0.62353597  0.88938078  0.02479762     0.15900
F402        F  0.74169710  0.94855451  0.07797604    -0.23400
H403        H  0.76414433  0.00401473  0.03756685     0.17700
C404        C  0.73968731  0.05237151  0.49901427     0.25700
C405        C  0.75636520  0.08465710  0.47883693    -0.12000
C406        C  0.76179573  0.07823326  0.44865036    -0.26000
C407        C  0.74993140  0.03851097  0.43899637     0.36600
C408        C  0.73255402  0.00605599  0.45918496    -0.27600
F409        F  0.73498265  0.05965918  0.02800019    -0.19700
H410        H  0.76551809  0.11489983  0.48699113     0.15900
F411        F  0.75456964  0.03088847  0.41008172    -0.23500
H412        H  0.72349272  0.97565708  0.45144328     0.17800
C413        C  0.66390752  0.70603438  0.01716872    -0.27500
C414        C  0.70582126  0.72073357  0.01590523     0.06100
C415        C  0.73153563  0.75155175  0.03565781     0.25700
C416        C  0.71570855  0.76855722  0.05547540    -0.12000
C417        C  0.67392389  0.75532903  0.05590522    -0.25900
C418        C  0.64796459  0.72310340  0.03691608     0.36500
C419        C  0.72290147  0.70544735  0.49295064     0.06100
F420        F  0.77206876  0.76540399  0.03562042    -0.19700
H421        H  0.73646098  0.79288757  0.06994563     0.15900
F422        F  0.60728218  0.70839523  0.03698109    -0.23400
H423        H  0.64365351  0.68217954  0.50215589     0.17700
C424        C  0.71005356  0.66388999  0.49073575     0.25700
C425        C  0.72730953  0.65026098  0.46929622    -0.12000
C426        C  0.75753235  0.67773272  0.44951958    -0.26000
C427        C  0.76949958  0.71931164  0.45136664     0.36600
C428        C  0.75237395  0.73285060  0.47295416    -0.27600
F429        F  0.68181318  0.63668281  0.50992275    -0.19700
H430        H  0.71733081  0.61809280  0.46852948     0.15900
F431        F  0.79823912  0.74715101  0.43279080    -0.23500
H432        H  0.76219040  0.76497627  0.47410989     0.21400
C433        C  0.73049163  0.67928844  0.25389773    -0.27500
C434        C  0.72521959  0.71188768  0.26222674     0.06100
C435        C  0.73645937  0.72839796  0.29099445     0.25700
C436        C  0.75370766  0.71306512  0.31081887    -0.12000
C437        C  0.75957012  0.68067265  0.30243016    -0.25900
C438        C  0.74726918  0.66360063  0.27373129     0.36500
C439        C  0.70819463  0.72863738  0.24072183     0.06100
F440        F  0.73183032  0.76012035  0.29960057    -0.19700
H441        H  0.76266644  0.72672428  0.33268665     0.15900
F442        F  0.75220294  0.63232860  0.26439801    -0.23400
H443        H  0.72155630  0.66593877  0.23192513     0.17700
C444        C  0.72644630  0.74271252  0.21262745     0.25700
C445        C  0.71054379  0.75930020  0.19273491    -0.12000
C446        C  0.67594903  0.76177591  0.20037619    -0.26000
C447        C  0.65742080  0.74700877  0.22844692     0.36600
C448        C  0.67356648  0.73075601  0.24834349    -0.27600
F449        F  0.76030043  0.74144146  0.20477723    -0.19700
H450        H  0.72548477  0.77039035  0.17135522     0.15900
F451        F  0.62425945  0.74906826  0.23710371    -0.23500
H452        H  0.65895569  0.71972833  0.26983747     0.17800
C453        C  0.38530941  0.85762500  0.14635028    -0.27500
C454        C  0.39892637  0.84332171  0.12254111     0.06100
C455        C  0.37303215  0.82450553  0.09822911     0.25700
C456        C  0.33377200  0.81855293  0.09841676    -0.12000
C457        C  0.31921395  0.83076328  0.12294024    -0.25900
C458        C  0.34587982  0.85160013  0.14657601     0.36500
C459        C  0.43759059  0.84300198  0.12485736     0.06100
F460        F  0.38446797  0.80902610  0.07526735    -0.19700
H461        H  0.31409225  0.80247748  0.07989378     0.15900
F462        F  0.33375501  0.86550044  0.17013391    -0.23400
H463        H  0.40488018  0.87241279  0.16520006     0.17700
C464        C  0.46559416  0.85566236  0.10106625     0.25700
C465        C  0.49818075  0.84840768  0.10182042    -0.12000
C466        C  0.50378897  0.82904752  0.12650429    -0.26000
C467        C  0.47714444  0.81887102  0.15111952     0.36600
C468        C  0.44443636  0.82573151  0.15015592    -0.27600
F469        F  0.46105800  0.87442573  0.07691442    -0.19700
H470        H  0.51863969  0.85734656  0.08286360     0.15900
F471        F  0.48112873  0.80015583  0.17553545    -0.23500
H472        H  0.42319845  0.81561309  0.16868370     0.17800
C473        C  0.45019724  0.61351765  0.15192648    -0.27500
C474        C  0.43643085  0.59381396  0.12438633     0.06100
C475        C  0.45884990  0.61275659  0.09843569     0.25700
C476        C  0.49257044  0.65189908  0.09981402    -0.12000
C477        C  0.50479875  0.67288340  0.12709782    -0.25900
C478        C  0.48416434  0.65255955  0.15340008     0.36500
C479        C  0.39619286  0.55630897  0.12247193     0.06100
F480        F  0.44734205  0.59391538  0.07157341    -0.19700
H481        H  0.50829966  0.66627902  0.07928762     0.15900
F482        F  0.49507941  0.67113746  0.18037594    -0.23400
H483        H  0.43327725  0.59966229  0.17217991     0.17700
C484        C  0.38466849  0.52356388  0.14223221     0.25700
C485        C  0.34482967  0.49068674  0.14218060    -0.12000
C486        C  0.31610035  0.48972168  0.12218466    -0.26000
C487        C  0.32808025  0.52193927  0.10184456     0.36600
C488        C  0.36760054  0.55486989  0.10217760    -0.27600
F489        F  0.41183653  0.52345979  0.16161523    -0.19700
H490        H  0.33634849  0.46606341  0.15788802     0.15900
F491        F  0.30103186  0.52284362  0.08273619    -0.23500
H492        H  0.37542071  0.58015172  0.08725678     0.17800
Fe493      Fe  0.67823296  0.83894038  0.62645710     1.65800
Fe494      Fe  0.58798386  0.79360881  0.66462082     1.73200
Fe495      Fe  0.58843089  0.79345550  0.58831644     1.54400
O496        O  0.62592859  0.84880704  0.56809647    -0.81000
O497        O  0.55112590  0.73387806  0.65207365    -0.79300
O498        O  0.68238150  0.87995527  0.59479766    -0.83500
O499        O  0.68217845  0.80211978  0.59413717    -0.78300
O500        O  0.55093755  0.81577344  0.60105130    -0.80100
O501        O  0.62535072  0.77613612  0.68443895    -0.82900
C502        C  0.65843017  0.77659398  0.57507681     0.97900
C503        C  0.66088556  0.87903276  0.57303538     1.05300
O504        O  0.61826119  0.80874299  0.62644889    -1.11800
O505        O  0.62143300  0.85147696  0.68181103    -0.74300
O506        O  0.68155959  0.87944944  0.65890629    -0.77800
O507        O  0.62240382  0.76941101  0.57133147    -0.78400
C508        C  0.65756543  0.88054425  0.67826649     0.96800
O509        O  0.68247541  0.80191608  0.65801812    -0.76400
O510        O  0.54610316  0.80891976  0.65038119    -0.81600
C511        C  0.53643689  0.71658311  0.62737642     0.99400
C512        C  0.53575637  0.81760116  0.62591744     1.05400
O513        O  0.54677487  0.73563668  0.60276354    -0.77200
C514        C  0.66027699  0.78088632  0.67961480     1.03700
Fe515      Fe  0.15494261  0.84033178  0.62421371     1.65800
Fe516      Fe  0.19977526  0.79547040  0.66202535     1.73200
Fe517      Fe  0.19887857  0.79448195  0.58596804     1.54400
O518        O  0.14429927  0.77880937  0.56604955    -0.81000
O519        O  0.25962610  0.81937888  0.64886295    -0.79300
O520        O  0.11125115  0.80031583  0.59499585    -0.83500
O521        O  0.18906540  0.87806546  0.58945958    -0.78300
O522        O  0.17438764  0.73476189  0.59871801    -0.80100
O523        O  0.21637477  0.85063831  0.68190691    -0.82900
C524        C  0.21575430  0.88018794  0.57119443     0.97900
C525        C  0.11306488  0.78130254  0.57225426     1.05300
O526        O  0.18445386  0.81006885  0.62409844    -1.11800
O527        O  0.14196973  0.77054488  0.67942212    -0.74300
O528        O  0.11717176  0.80685822  0.65909762    -0.77800
O529        O  0.22496421  0.85251213  0.56918067    -0.78400
C530        C  0.11491084  0.78061223  0.67766576     0.96800
O531        O  0.19499998  0.88387660  0.65344982    -0.76400
O532        O  0.18477274  0.73777386  0.64768727    -0.81600
C533        C  0.27578333  0.81920360  0.62405841     0.99400
C534        C  0.17396683  0.71817845  0.62331261     1.05400
O535        O  0.25575199  0.80808447  0.60001667    -0.77200
C536        C  0.21409607  0.88204685  0.67592483     1.03700
Fe537      Fe  0.15260023  0.31340955  0.62491319     1.65800
Fe538      Fe  0.19548480  0.40307790  0.58643407     1.73200
Fe539      Fe  0.19915667  0.40384632  0.66239578     1.54400
O540        O  0.14153423  0.37132047  0.68059784    -0.81000
O541        O  0.25257509  0.44728069  0.59981825    -0.79300
O542        O  0.11499468  0.30985365  0.66011000    -0.83500
O543        O  0.19344267  0.31044700  0.65360083    -0.78300
O544        O  0.18490495  0.44693921  0.64847587    -0.80100
O545        O  0.22119379  0.37089236  0.56887241    -0.82900
C546        C  0.21426112  0.33220295  0.67536905     0.97900
C547        C  0.11337925  0.33447524  0.67863758     1.05300
O548        O  0.18235042  0.37337151  0.62457347    -1.11800
O549        O  0.14047147  0.36362641  0.56725521    -0.74300
O550        O  0.10842947  0.30902746  0.59616850    -0.77800
O551        O  0.21649645  0.36578520  0.68170112    -0.78400
C552        C  0.10953294  0.32968485  0.57364739     0.96800
O553        O  0.18599912  0.30937548  0.58946795    -0.76400
O554        O  0.17107824  0.43832163  0.59998804    -0.81600
C555        C  0.27335106  0.45659622  0.62351006     0.99400
C556        C  0.17304345  0.45564154  0.62466275     1.05400
O557        O  0.25850918  0.43952075  0.64833753    -0.77200
C558        C  0.21199189  0.33389588  0.57072791     1.03700
Fe559      Fe  0.83805013  0.68388208  0.87519778     1.65800
Fe560      Fe  0.79419849  0.59398363  0.83703952     1.73200
Fe561      Fe  0.79376912  0.59352423  0.91302013     1.54400
O562        O  0.84891839  0.63222430  0.93263828    -0.81000
O563        O  0.73442997  0.55752136  0.84944302    -0.79300
O564        O  0.88152587  0.68781884  0.90454696    -0.83500
O565        O  0.80368850  0.68750872  0.90991965    -0.78300
O566        O  0.81714667  0.55716550  0.90023759    -0.80100
O567        O  0.77797485  0.63239695  0.81705350    -0.82900
C568        C  0.77761169  0.66291840  0.92849279     0.97900
C569        C  0.88001880  0.66634826  0.92668085     1.05300
O570        O  0.80866450  0.62383442  0.87511617    -1.11800
O571        O  0.85239133  0.62708443  0.82066102    -0.74300
O572        O  0.87662409  0.68853678  0.84063768    -0.77800
O573        O  0.76867690  0.62607068  0.93036053    -0.78400
C574        C  0.87961371  0.66420113  0.82268415     0.96800
O575        O  0.79799442  0.68684362  0.84577779    -0.76400
O576        O  0.80812776  0.55091500  0.85123948    -0.81600
C577        C  0.71743379  0.54118419  0.87400240     0.99400
C578        C  0.81750988  0.54092732  0.87558682     1.05400
O579        O  0.73637800  0.55073734  0.89859371    -0.77200
C580        C  0.77951176  0.66573035  0.82309233     1.03700
Fe581      Fe  0.83738809  0.15632610  0.87577401     1.65800
Fe582      Fe  0.79100743  0.19868643  0.91506623     1.73200
Fe583      Fe  0.78995648  0.19897182  0.83923741     1.54400
O584        O  0.84450230  0.21519878  0.81786581    -0.81000
O585        O  0.73059899  0.17159683  0.90379804    -0.79300
O586        O  0.88095774  0.19884430  0.84735488    -0.83500
O587        O  0.80544486  0.11920623  0.84011688    -0.78300
O588        O  0.81373116  0.25915507  0.85168215    -0.80100
O589        O  0.77893345  0.14498707  0.93529809    -0.82900
C590        C  0.77640740  0.11477515  0.82369652     0.97900
C591        C  0.87721015  0.21553285  0.82402414     1.05300
O592        O  0.80617344  0.18472683  0.87668731    -1.11800
O593        O  0.84978033  0.22725721  0.93032335    -0.74300
O594        O  0.87344230  0.18891082  0.91148929    -0.77800
O595        O  0.76434938  0.14040329  0.82333040    -0.78400
C596        C  0.87623029  0.21631417  0.92926811     0.96800
O597        O  0.79696904  0.11112735  0.90403895    -0.76400
O598        O  0.80087941  0.25439903  0.90043102    -0.81600
C599        C  0.71373583  0.17240335  0.87971203     0.99400
C600        C  0.81144116  0.27455903  0.87629560     1.05400
O601        O  0.73294647  0.18420860  0.85512713    -0.77200
C602        C  0.78014134  0.11331880  0.92795770     1.03700
Fe603      Fe  0.31218853  0.15686408  0.87298645     1.65800
Fe604      Fe  0.40121394  0.19940512  0.91200978     1.73200
Fe605      Fe  0.40344117  0.20322101  0.83563788     1.54400
O606        O  0.36739438  0.14698202  0.81599479    -0.81000
O607        O  0.44184042  0.25835422  0.90011836    -0.79300
O608        O  0.30932637  0.11572124  0.84168836    -0.83500
O609        O  0.30876728  0.19296882  0.83985301    -0.78300
O610        O  0.44268277  0.18351256  0.84848364    -0.80100
O611        O  0.36511918  0.22013096  0.93097125    -0.82900
C612        C  0.33260432  0.21750247  0.82022651     0.97900
C613        C  0.33225134  0.11654059  0.82068050     1.05300
O614        O  0.37229447  0.18653783  0.87351672    -1.11800
O615        O  0.36523926  0.14214917  0.92910276    -0.74300
O616        O  0.30615792  0.11569064  0.90575532    -0.77800
O617        O  0.36900970  0.22549901  0.81736482    -0.78400
C618        C  0.32908087  0.11375750  0.92530949     0.96800
O619        O  0.30852080  0.19498286  0.90424446    -0.76400
O620        O  0.44090912  0.18047808  0.89804071    -0.81600
C621        C  0.45555838  0.27773276  0.87591200     0.99400
C622        C  0.45456100  0.17676197  0.87304936     1.05400
O623        O  0.44318815  0.26147463  0.85051284    -0.77200
C624        C  0.33073977  0.21656709  0.92558962     1.03700
C625        C  0.61543388  0.16607592  0.90389067    -0.27500
C626        C  0.59195053  0.15135769  0.87793786     0.06100
C627        C  0.60733466  0.13939231  0.85372455     0.25700
C628        C  0.64641143  0.14467660  0.85486708    -0.12000
C629        C  0.67051311  0.16114579  0.88034244    -0.25900
C630        C  0.65413109  0.17057513  0.90526270     0.36500
C631        C  0.55372268  0.15272028  0.87532821     0.06100
F632        F  0.58494115  0.12338676  0.82872647    -0.19700
H633        H  0.65821955  0.13669461  0.83554609     0.15900
F634        F  0.67662373  0.18706633  0.93015393    -0.23400
H635        H  0.60474271  0.17620643  0.92266240     0.17700
C636        C  0.52542109  0.14016442  0.89894695     0.25700
C637        C  0.49248954  0.14682104  0.89765785    -0.12000
C638        C  0.48679436  0.16568271  0.87270466    -0.26000
C639        C  0.51411924  0.17655812  0.84851170     0.36600
C640        C  0.54726125  0.17034681  0.84998916    -0.27600
F641        F  0.52984473  0.12191052  0.92345719    -0.19700
H642        H  0.47174810  0.13776815  0.91645985     0.15900
F643        F  0.51037331  0.19544635  0.82410805    -0.23500
H644        H  0.56898136  0.18112480  0.83176172     0.17800
C645        C  0.61764531  0.45151941  0.84900568    -0.27500
C646        C  0.59546627  0.43944745  0.87584697     0.06100
C647        C  0.61238532  0.46342217  0.90149652     0.25700
C648        C  0.65151044  0.49734388  0.90053001    -0.12000
C649        C  0.67429548  0.50845183  0.87391450    -0.25900
C650        C  0.65641520  0.48580300  0.84788579     0.36500
C651        C  0.55684025  0.39989106  0.87740522     0.06100
F652        F  0.59138245  0.45373789  0.92763468    -0.19700
H653        H  0.66426745  0.51451630  0.92078951     0.15900
F654        F  0.67720539  0.49513956  0.82166606    -0.23400
H655        H  0.60580872  0.43329097  0.82907654     0.17700
C656        C  0.52767883  0.38742844  0.85462351     0.25700
C657        C  0.49416478  0.34796397  0.85456133    -0.12000
C658        C  0.48867487  0.32052414  0.87746024    -0.26000
C659        C  0.51688240  0.33357159  0.90089839     0.36600
C660        C  0.55069207  0.37264821  0.90063651    -0.27600
F661        F  0.53173934  0.41323545  0.83227755    -0.19700
H662        H  0.47265123  0.33870111  0.83642626     0.15900
F663        F  0.51327224  0.30779547  0.92315617    -0.23500
H664        H  0.57307797  0.38094204  0.91804728     0.17800
C665        C  0.81006428  0.36995973  0.89931922    -0.27500
C666        C  0.83233856  0.39701036  0.87620930     0.06100
C667        C  0.84997098  0.38434307  0.85403596     0.25700
C668        C  0.84353698  0.34467550  0.85428759    -0.12000
C669        C  0.82024675  0.31725134  0.87699997    -0.25900
C670        C  0.80420146  0.33067121  0.89989770     0.36500
C671        C  0.83462769  0.43717110  0.87487730     0.06100
F672        F  0.87362300  0.41032442  0.83225153    -0.19700
H673        H  0.85679087  0.33541480  0.83670114     0.15900
F674        F  0.78124590  0.30537716  0.92224859    -0.23400
H675        H  0.79593441  0.37880161  0.91653276     0.17700
C676        C  0.82470305  0.45028479  0.84860156     0.25700
C677        C  0.82148513  0.48529691  0.84873390    -0.12000
C678        C  0.82723461  0.50765073  0.87511725    -0.26000
C679        C  0.83870923  0.49537589  0.90115848     0.36600
C680        C  0.84247325  0.46061676  0.90088976    -0.27600
F681        F  0.81510716  0.42773345  0.82329438    -0.19700
H682        H  0.81242532  0.49368599  0.82833381     0.15900
F683        F  0.84492910  0.51595515  0.92718456    -0.23500
H684        H  0.85033765  0.45122856  0.92138265     0.17800
C685        C  0.00748565  0.25972291  0.53747369    -0.27500
C686        C  0.00885855  0.28315062  0.51295051     0.06100
C687        C  0.04270977  0.32193164  0.50874793     0.25700
C688        C  0.07492503  0.33697349  0.52879980    -0.12000
C689        C  0.07396508  0.31365520  0.55349903    -0.25900
C690        C  0.03959330  0.27474892  0.55770711     0.36500
C691        C  0.97533379  0.26664184  0.99137079     0.06100
F692        F  0.04507198  0.34471671  0.48474261    -0.19700
H693        H  0.10091127  0.36686034  0.52470553     0.15900
F694        F  0.03707577  0.25089457  0.58102492    -0.23400
H695        H  0.98143156  0.22964382  0.54088794     0.17700
C696        C  0.96808996  0.23359301  0.97326579     0.25700
C697        C  0.93644913  0.21813162  0.95272374    -0.12000
C698        C  0.91107561  0.23502230  0.95008632    -0.26000
C699        C  0.91852862  0.26831180  0.96841588     0.36600
C700        C  0.95064423  0.28407888  0.98868454    -0.27600
F701        F  0.99194590  0.21656225  0.97525530    -0.19700
H702        H  0.93151830  0.19245778  0.93916911     0.15900
F703        F  0.89487457  0.28561647  0.96696452    -0.23500
H704        H  0.95599054  0.30960945  0.50259938     0.17800
C705        C  0.93745708  0.25565479  0.75199317    -0.27500
C706        C  0.97735981  0.27024903  0.76164867     0.06100
C707        C  0.98439586  0.26751920  0.79207983     0.25700
C708        C  0.95184811  0.24992239  0.81234284    -0.12000
C709        C  0.91179658  0.23531423  0.80270881    -0.25900
C710        C  0.90498350  0.23853293  0.77221967     0.36500
C711        C  0.01131218  0.28732216  0.73974886     0.06100
F712        F  0.02261512  0.28075046  0.80202122    -0.19700
H713        H  0.95798661  0.24771342  0.83561784     0.15900
F714        F  0.86679320  0.22386317  0.76168444    -0.23400
H715        H  0.93144004  0.25744529  0.72862290     0.17700
C716        C  0.01167330  0.26374599  0.71568961     0.25700
C717        C  0.04452647  0.27946748  0.69574042    -0.12000
C718        C  0.07756363  0.31924417  0.69908309    -0.26000
C719        C  0.07628748  0.34333083  0.72268202     0.36600
C720        C  0.04365878  0.32726085  0.74288437    -0.27600
F721        F  0.98080130  0.22499022  0.71202685    -0.19700
H722        H  0.04421598  0.26018716  0.67780406     0.15900
F723        F  0.10671796  0.38221549  0.72666209    -0.23500
H724        H  0.04357524  0.34608088  0.76104218     0.17800
C725        C  0.26159141  0.23575890  0.77193080    -0.27500
C726        C  0.28903753  0.27011889  0.75549183     0.06100
C727        C  0.33079059  0.28805757  0.76116127     0.25700
C728        C  0.34470376  0.27126439  0.78259656    -0.12000
C729        C  0.31724309  0.23664022  0.79906599    -0.25900
C730        C  0.27535338  0.21920754  0.79358022     0.36500
C731        C  0.27340384  0.28734806  0.73310385     0.06100
F732        F  0.35813006  0.32114081  0.74545412    -0.19700
H733        H  0.37709536  0.28529239  0.78619598     0.15900
F734        F  0.24761879  0.18541687  0.80841099    -0.23400
H735        H  0.22926452  0.22177185  0.76803236     0.17700
C736        C  0.24851420  0.26320711  0.70973143     0.25700
C737        C  0.23029747  0.27830815  0.69059071    -0.12000
C738        C  0.23630960  0.31770995  0.69446413    -0.26000
C739        C  0.26262872  0.34237889  0.71730931     0.36600
C740        C  0.28097387  0.32724173  0.73628703    -0.27600
F741        F  0.24160879  0.22486406  0.70557082    -0.19700
H742        H  0.21070898  0.25869752  0.67311390     0.15900
F743        F  0.27020268  0.38089838  0.72181528    -0.23500
H744        H  0.30007185  0.34627391  0.75420157     0.17800
C745        C  0.28403274  0.32982635  0.51316329    -0.27500
C746        C  0.26496786  0.28800514  0.50715456     0.06100
C747        C  0.22931944  0.26134178  0.52286146     0.25700
C748        C  0.21289871  0.27639014  0.54393457    -0.12000
C749        C  0.23138808  0.31837547  0.54960086    -0.25900
C750        C  0.26735728  0.34501970  0.53396455     0.36500
C751        C  0.28275062  0.27218044  0.98500327     0.06100
F752        F  0.21069872  0.22060959  0.51815829    -0.19700
H753        H  0.18522000  0.25511177  0.55547621     0.15900
F754        F  0.28666699  0.38573775  0.53884597    -0.23400
H755        H  0.31164886  0.35081849  0.00141307     0.17700
C756        C  0.25961808  0.24791845  0.96103568     0.25700
C757        C  0.27575445  0.23082643  0.94149197    -0.12000
C758        C  0.31536171  0.23758533  0.94533220    -0.26000
C759        C  0.33907319  0.26338253  0.96871545     0.36600
C760        C  0.32282217  0.28046190  0.98823059    -0.27600
F761        F  0.22140738  0.24086347  0.95644927    -0.19700
H762        H  0.25683440  0.21170884  0.92357342     0.15900
F763        F  0.37776687  0.27179589  0.97311893    -0.23500
H764        H  0.34123845  0.29938073  0.50642058     0.17800
C765        C  0.25719003  0.01878268  0.96925050    -0.27500
C766        C  0.28445506  0.01339256  0.98688797     0.06100
C767        C  0.32634030  0.03959863  0.98292832     0.25700
C768        C  0.34051697  0.07143498  0.96234150    -0.12000
C769        C  0.31328181  0.07765663  0.94512678    -0.25900
C770        C  0.27130336  0.05043521  0.94847378     0.36500
C771        C  0.26886529  0.98072563  0.50959266     0.06100
F772        F  0.35350181  0.03538285  0.49977193    -0.19700
H773        H  0.37299231  0.09165712  0.96021190     0.15900
F774        F  0.24374855  0.05503724  0.93246683    -0.23400
H775        H  0.22476564  0.99848813  0.97174098     0.17700
C776        C  0.24046835  0.97762080  0.53111595     0.25700
C777        C  0.22426551  0.94555117  0.55152992    -0.12000
C778        C  0.23596515  0.91582752  0.55092126    -0.26000
C779        C  0.26555799  0.91983599  0.52990338     0.36600
C780        C  0.28172451  0.95200377  0.50949048    -0.27600
F781        F  0.22852217  0.00577235  0.53249545    -0.19700
H782        H  0.20198873  0.94372304  0.56753464     0.15900
F783        F  0.27847702  0.89243268  0.52857560    -0.23500
H784        H  0.30365927  0.95396228  0.99309432     0.17800
C785        C  0.25533976  0.98740273  0.70990142    -0.27500
C786        C  0.26908859  0.98227999  0.73757952     0.06100
C787        C  0.26540000  0.94468717  0.74468130     0.25700
C788        C  0.24823178  0.91266135  0.72428403    -0.12000
C789        C  0.23383528  0.91728582  0.69655525    -0.25900
C790        C  0.23754094  0.95519050  0.68958221     0.36500
C791        C  0.28622774  0.01592125  0.75930478     0.06100
F792        F  0.27865207  0.93907434  0.77129917    -0.19700
H793        H  0.24568587  0.88394454  0.73048564     0.15900
F794        F  0.22393107  0.96125767  0.66328797    -0.23400
H795        H  0.25778216  0.01625998  0.70427084     0.17700
C796        C  0.32278156  0.05185270  0.75325880     0.25700
C797        C  0.33811532  0.08397860  0.77366255    -0.12000
C798        C  0.31697140  0.08102734  0.80029655    -0.26000
C799        C  0.28042715  0.04453673  0.80635864     0.36600
C800        C  0.26548725  0.01231597  0.78606737    -0.27600
F801        F  0.34367660  0.05573979  0.72766275    -0.19700
H802        H  0.36621893  0.11150373  0.76827436     0.15900
F803        F  0.25880518  0.03989483  0.83170167    -0.23500
H804        H  0.23720408  0.98469534  0.79096493     0.17800
C805        C  0.02264443  0.76145050  0.72343774    -0.27500
C806        C  0.01669881  0.72884138  0.74149322     0.06100
C807        C  0.04221538  0.71232741  0.73777690     0.25700
C808        C  0.07361352  0.72880919  0.71665307    -0.12000
C809        C  0.07997010  0.76184756  0.69869435    -0.25900
C810        C  0.05380642  0.77782947  0.70221763     0.36500
C811        C  0.98325226  0.71189492  0.76365139     0.06100
F812        F  0.03744815  0.68097083  0.75509259    -0.19700
H813        H  0.09317412  0.71584424  0.71455164     0.15900
F814        F  0.05863719  0.80982510  0.68567327    -0.23400
H815        H  0.00289422  0.77418234  0.72570028     0.17700
C816        C  0.97900673  0.73731702  0.78439786     0.25700
C817        C  0.94575374  0.72146020  0.80387563    -0.12000
C818        C  0.91595484  0.67997731  0.80300496    -0.26000
C819        C  0.92087322  0.65441405  0.78255799     0.36600
C820        C  0.95424362  0.67035494  0.76318490    -0.27600
F821        F  0.00709214  0.77751132  0.78586151    -0.19700
H822        H  0.94313050  0.74192368  0.81939335     0.15900
F823        F  0.89320163  0.61414123  0.78074117    -0.23500
H824        H  0.95685682  0.65037084  0.74717965     0.17800
C825        C  0.00860248  0.74185171  0.53817728    -0.27500
C826        C  0.01402023  0.72957701  0.50973819     0.06100
C827        C  0.05172341  0.73339278  0.50240433     0.25700
C828        C  0.08332130  0.74947718  0.52304817    -0.12000
C829        C  0.07816863  0.76222469  0.55145289    -0.25900
C830        C  0.04015700  0.75783279  0.55891244     0.36500
C831        C  0.98017779  0.71266768  0.98801077     0.06100
F832        F  0.05789993  0.72101245  0.97543467    -0.19700
H833        H  0.11210421  0.75235939  0.51655685     0.15900
F834        F  0.03325557  0.76877168  0.58620905    -0.23400
H835        H  0.97990166  0.73945088  0.54427136     0.17700
C836        C  0.94118011  0.68187038  0.99661357     0.25700
C837        C  0.90920440  0.66669212  0.97636183    -0.12000
C838        C  0.91520152  0.68187386  0.94708647    -0.26000
C839        C  0.95442943  0.71228736  0.93826483     0.36600
C840        C  0.98651257  0.72747997  0.95860672    -0.27600
F841        F  0.93402754  0.66599805  0.02454723    -0.19700
H842        H  0.87942475  0.64330849  0.98383929     0.15900
F843        F  0.96195155  0.72709237  0.90999883    -0.23500
H844        H  0.01627495  0.75132565  0.95148889     0.17800
C845        C  0.14239051  0.61146762  0.64945593    -0.27500
C846        C  0.15171001  0.59572396  0.62412895     0.06100
C847        C  0.16408498  0.61897057  0.59779747     0.25700
C848        C  0.16906110  0.65792934  0.59736697    -0.12000
C849        C  0.16242839  0.67477937  0.62323163    -0.25900
C850        C  0.14791418  0.65074092  0.64914783     0.36500
C851        C  0.15251802  0.55716025  0.62600273     0.06100
F852        F  0.17423615  0.60532119  0.57304299    -0.19700
H853        H  0.18033635  0.67577466  0.57717576     0.15900
F854        F  0.13970524  0.66534828  0.67430163    -0.23400
H855        H  0.13200791  0.59378202  0.66977540     0.17700
C856        C  0.17374280  0.55119774  0.64913141     0.25700
C857        C  0.17863581  0.51720506  0.64906434    -0.12000
C858        C  0.16307239  0.48865343  0.62576988    -0.26000
C859        C  0.14065666  0.49388031  0.60309964     0.36600
C860        C  0.13525161  0.52770450  0.60341182    -0.27600
F861        F  0.19204437  0.57951612  0.67084880    -0.19700
H862        H  0.19633368  0.51428789  0.66667123     0.15900
F863        F  0.12441872  0.46672686  0.58044003    -0.23500
H864        H  0.11832110  0.53139536  0.58559109     0.17800
C865        C  0.72608573  0.98309314  0.71463051    -0.27500
C866        C  0.70386252  0.98042056  0.74046445     0.06100
C867        C  0.66520847  0.94615513  0.74465612     0.25700
C868        C  0.64986311  0.91446633  0.72386406    -0.12000
C869        C  0.67264669  0.91633348  0.69840863    -0.25900
C870        C  0.71069270  0.95159286  0.69368782     0.36500
C871        C  0.72144873  0.01337799  0.76295557     0.06100
F872        F  0.64298444  0.94256560  0.76945289    -0.19700
H873        H  0.62050734  0.88789230  0.72820835     0.15900
F874        F  0.73326528  0.95570842  0.66899225    -0.23400
H875        H  0.75557555  0.00970168  0.71072204     0.17700
C876        C  0.75962135  0.02556525  0.77546793     0.25700
C877        C  0.77682733  0.05783736  0.79574561    -0.12000
C878        C  0.75649982  0.07884337  0.80374046    -0.26000
C879        C  0.71775878  0.06586012  0.79170699     0.36600
C880        C  0.70047969  0.03337601  0.77159483    -0.27600
F881        F  0.78015572  0.00606026  0.76818933    -0.19700
H882        H  0.80653321  0.06693810  0.80470729     0.15900
F883        F  0.69643292  0.08440320  0.79938110    -0.23500
H884        H  0.67097307  0.02431881  0.76226193     0.17800
C885        C  0.73338373  0.97906922  0.53481612    -0.27500
C886        C  0.71010727  0.97870774  0.51065260     0.06100
C887        C  0.67038506  0.94609691  0.50731210     0.25700
C888        C  0.65428537  0.91417692  0.52793618    -0.12000
C889        C  0.67763552  0.91412149  0.55215627    -0.25900
C890        C  0.71755185  0.94714295  0.55534336     0.36500
C891        C  0.72744924  0.01279854  0.98926907     0.06100
F892        F  0.64697692  0.94552475  0.98439637    -0.19700
H893        H  0.62354822  0.88937836  0.52479731     0.15900
F894        F  0.74170241  0.94855949  0.57798437    -0.23400
H895        H  0.76415069  0.00402175  0.53757636     0.17700
C896        C  0.73967504  0.05236775  0.99900852     0.25700
C897        C  0.75635585  0.08465450  0.97883206    -0.12000
C898        C  0.76179325  0.07823268  0.94864635    -0.26000
C899        C  0.74993219  0.03851103  0.93899243     0.36600
C900        C  0.73255152  0.00605483  0.95918014    -0.27600
F901        F  0.73500028  0.05966460  0.52800664    -0.19700
H902        H  0.76550567  0.11489601  0.98698628     0.15900
F903        F  0.75457724  0.03089031  0.91007874    -0.23500
H904        H  0.72349310  0.97565651  0.95143859     0.17800
C905        C  0.66390889  0.70604209  0.51715972    -0.27500
C906        C  0.70582136  0.72073595  0.51590024     0.06100
C907        C  0.73153491  0.75154738  0.53565750     0.25700
C908        C  0.71570774  0.76855174  0.55547563    -0.12000
C909        C  0.67392439  0.75532902  0.55590170    -0.25900
C910        C  0.64796574  0.72310939  0.53690770     0.36500
C911        C  0.72290147  0.70544353  0.99295591     0.06100
F912        F  0.77206684  0.76539356  0.53562394    -0.19700
H913        H  0.73646012  0.79287768  0.56995030     0.15900
F914        F  0.60728437  0.70840688  0.53696776    -0.23400
H915        H  0.64365202  0.68216761  0.00216946     0.17700
C916        C  0.71005879  0.66388691  0.99074469     0.25700
C917        C  0.72731505  0.65025725  0.96930535    -0.12000
C918        C  0.75753325  0.67772771  0.94952508    -0.26000
C919        C  0.76949600  0.71930577  0.95136921     0.36600
C920        C  0.75236998  0.73284514  0.97295633    -0.27600
F921        F  0.68182317  0.63668102  0.00993493    -0.19700
H922        H  0.71734029  0.61809045  0.96854153     0.15900
F923        F  0.79823032  0.74714394  0.93278980    -0.23500
H924        H  0.76218288  0.76497040  0.97410905     0.21400
C925        C  0.73049923  0.67929299  0.75389640    -0.27500
C926        C  0.72522636  0.71189182  0.76222515     0.06100
C927        C  0.73646364  0.72840101  0.79099337     0.25700
C928        C  0.75370912  0.71306678  0.81081888    -0.12000
C929        C  0.75957239  0.68067475  0.80243055    -0.25900
C930        C  0.74727508  0.66360455  0.77373078     0.36500
C931        C  0.70820143  0.72864097  0.74071987     0.06100
F932        F  0.73183486  0.76012371  0.79959908    -0.19700
H933        H  0.76266565  0.72672504  0.83268720     0.15900
F934        F  0.75220984  0.63233310  0.76439751    -0.23400
H935        H  0.72156560  0.66594396  0.73192376     0.17700
C936        C  0.72644825  0.74270819  0.71262302     0.25700
C937        C  0.71054475  0.75929415  0.69273015    -0.12000
C938        C  0.67595476  0.76177723  0.70037347    -0.26000
C939        C  0.65743188  0.74701887  0.72844695     0.36600
C940        C  0.67357772  0.73076660  0.74834352    -0.27600
F941        F  0.76029861  0.74143116  0.70477081    -0.19700
H942        H  0.72548237  0.77037823  0.67134772     0.15900
F943        F  0.62427570  0.74908626  0.73710617    -0.23500
H944        H  0.65897023  0.71974470  0.76983954     0.17800
C945        C  0.38530865  0.85761120  0.64634422    -0.27500
C946        C  0.39892761  0.84331718  0.62253045     0.06100
C947        C  0.37303643  0.82451314  0.59821476     0.25700
C948        C  0.33377654  0.81856134  0.59840432    -0.12000
C949        C  0.31921560  0.83076022  0.62293256    -0.25900
C950        C  0.34587946  0.85158687  0.64657162     0.36500
C951        C  0.43758932  0.84299223  0.62484615     0.06100
F952        F  0.38447486  0.80904429  0.57524757    -0.19700
H953        H  0.31409748  0.80249366  0.57987729     0.15900
F954        F  0.33375269  0.86547678  0.67013470    -0.23400
H955        H  0.40487712  0.87239012  0.66519658     0.17700
C956        C  0.46559861  0.85566094  0.60105859     0.25700
C957        C  0.49818638  0.84840758  0.60181360    -0.12000
C958        C  0.50378893  0.82903973  0.62649549    -0.26000
C959        C  0.47713710  0.81885273  0.65110680     0.36600
C960        C  0.44442843  0.82571214  0.65014217    -0.27600
F961        F  0.46106887  0.87443326  0.57690963    -0.19700
H962        H  0.51864925  0.85735347  0.58286091     0.15900
F963        F  0.48111550  0.80012961  0.67552026    -0.23500
H964        H  0.42318653  0.81558715  0.66866665     0.17800
C965        C  0.45020057  0.61351891  0.65192724    -0.27500
C966        C  0.43643354  0.59381464  0.62438725     0.06100
C967        C  0.45885256  0.61275652  0.59843634     0.25700
C968        C  0.49257357  0.65189879  0.59981427    -0.12000
C969        C  0.50480285  0.67288334  0.62709783    -0.25900
C970        C  0.48416859  0.65256038  0.65340027     0.36500
C971        C  0.39619534  0.55630942  0.62247344     0.06100
F972        F  0.44734450  0.59391462  0.57157432    -0.19700
H973        H  0.50830318  0.66627857  0.57928754     0.15900
F974        F  0.49508414  0.67113923  0.68037580    -0.23400
H975        H  0.43328100  0.59966483  0.67218042     0.17700
C976        C  0.38467034  0.52356565  0.64223524     0.25700
C977        C  0.34483168  0.49068797  0.64218343    -0.12000
C978        C  0.31610307  0.48972091  0.62218576    -0.26000
C979        C  0.32808344  0.52193741  0.60184454     0.36600
C980        C  0.36760347  0.55486842  0.60217784    -0.27600
F981        F  0.41183764  0.52346323  0.66161987    -0.19700
H982        H  0.33635015  0.46606590  0.65789186     0.15900
F983        F  0.30103555  0.52284016  0.58273482    -0.23500
H984        H  0.37542396  0.58014980  0.58725563     0.17800
loop_ 
_geom_bond_atom_site_label_1 
_geom_bond_atom_site_label_2 
_geom_bond_distance 
_geom_bond_site_symmetry_2 
_ccdc_geom_bond_type 
Fe1          O17   2.062       .  S
Fe1           O7   2.068       .  S
Fe1          O14   2.073       .  S
Fe1           O6   2.058       .  S
Fe1          O12   1.975       .  S
Fe2           O5   2.061       .  S
Fe2           O9   2.055       .  S
Fe2          O13   2.061       .  S
Fe2          O18   2.058       .  S
Fe2          O12   1.976       .  S
Fe3          O21   2.065       .  S
Fe3           O8   2.070       .  S
Fe3          O15   2.063       .  S
Fe3           O4   2.066       .  S
Fe3          O12   1.978       .  S
O4           C11   1.268       .  A
O5           C19   1.268       .  A
O6           C11   1.267       .  A
O7           C10   1.271       .  A
O8           C20   1.270       .  A
O9           C22   1.266       .  A
C10          O15   1.269       .  A
C10         C417   1.486       .  S
C11         C397   1.486       .  S
O13          C16   1.270       .  A
O14          C16   1.271       .  A
C16         C377   1.487       .  S
O17          C22   1.268       .  A
O18          C20   1.267       .  A
C19          O21   1.269       .  A
C19         C477   1.484       .  S
C20         C466   1.484       .  S
C22         C446   1.482       .  S
Fe23         O39   2.066       .  S
Fe23         O29   2.071       .  S
Fe23         O36   2.069       .  S
Fe23         O28   2.068       .  S
Fe23         O34   1.970       .  S
Fe24         O27   2.067       .  S
Fe24         O31   2.064       .  S
Fe24         O35   2.059       .  S
Fe24         O40   2.071       .  S
Fe24         O34   1.971       .  S
Fe25         O43   2.061       .  S
Fe25         O30   2.056       .  S
Fe25         O37   2.054       .  S
Fe25         O26   2.062       .  S
Fe25         O34   1.971       .  S
O26          C33   1.268       .  A
O27          C41   1.269       .  A
O28          C33   1.270       .  A
O29          C32   1.271       .  A
O30          C42   1.268       .  A
O31          C44   1.269       .  A
C32          O37   1.267       .  A
C32         C286   1.485       .  S
C33         C337   1.486       .  S
O35          C38   1.269       .  A
O36          C38   1.270       .  A
C38         C317   1.484       .  S
O39          C44   1.269       .  A
O40          C42   1.270       .  A
C41          O43   1.268       .  A
C41         C457   1.483       .  S
C42         C357   1.479       .  S
C44         C297   1.486       .  S
Fe45         O61   2.081       .  S
Fe45         O51   2.071       .  S
Fe45         O58   2.065       .  S
Fe45         O50   2.082       .  S
Fe45         O56   1.972       .  S
Fe46         O49   2.063       .  S
Fe46         O53   2.064       .  S
Fe46         O57   2.060       .  S
Fe46         O62   2.065       .  S
Fe46         O56   1.971       .  S
Fe47         O65   2.062       .  S
Fe47         O52   2.066       .  S
Fe47         O59   2.062       .  S
Fe47         O48   2.066       .  S
Fe47         O56   1.972       .  S
O48          C55   1.270       .  A
O49          C63   1.268       .  A
O50          C55   1.274       .  A
O51          C54   1.270       .  A
O52          C64   1.270       .  A
O53          C66   1.270       .  A
C54          O59   1.267       .  A
C54         C246   1.489       .  S
C55         C226   1.493       .  S
O57          C60   1.268       .  A
O58          C60   1.269       .  A
C60         C197   1.486       .  S
O61          C66   1.274       .  A
O62          C64   1.269       .  A
C63          O65   1.268       .  A
C63         C486   1.477       .  S
C64         C366   1.483       .  S
C66         C257   1.488       .  S
Fe67         O83   2.069       .  S
Fe67         O73   2.075       .  S
Fe67         O80   2.073       .  S
Fe67         O72   2.068       .  S
Fe67         O78   1.975       .  S
Fe68         O71   2.057       .  S
Fe68         O75   2.058       .  S
Fe68         O79   2.054       .  S
Fe68         O84   2.061       .  S
Fe68         O78   1.970       .  S
Fe69         O87   2.070       .  S
Fe69         O74   2.062       .  S
Fe69         O81   2.053       .  S
Fe69         O70   2.065       .  S
Fe69         O78   1.970       .  S
O70          C77   1.270       .  A
O71          C85   1.268       .  A
O72          C77   1.270       .  A
O73          C76   1.271       .  A
O74          C86   1.268       .  A
O75          C88   1.267       .  A
C76          O81   1.268       .  A
C76         C426   1.486       .  S
C77         C346   1.484       .  S
O79          C82   1.267       .  A
O80          C82   1.271       .  A
C82         C326   1.485       .  S
O83          C88   1.270       .  A
O84          C86   1.268       .  A
C85          O87   1.271       .  A
C85         C157   1.482       .  S
C86         C186   1.485       .  S
C88         C437   1.484       .  S
Fe89        O105   2.064       .  S
Fe89         O95   2.078       .  S
Fe89        O102   2.073       .  S
Fe89         O94   2.069       .  S
Fe89        O100   1.966       .  S
Fe90         O93   2.060       .  S
Fe90         O97   2.065       .  S
Fe90        O101   2.058       .  S
Fe90        O106   2.065       .  S
Fe90        O100   1.966       .  S
Fe91        O109   2.072       .  S
Fe91         O96   2.070       .  S
Fe91        O103   2.059       .  S
Fe91         O92   2.074       .  S
Fe91        O100   1.962       .  S
O92          C99   1.271       .  A
O93         C107   1.269       .  A
O94          C99   1.271       .  A
O95          C98   1.271       .  A
O96         C108   1.271       .  A
O97         C110   1.270       .  A
C98         O103   1.268       .  A
C98         C386   1.485       .  S
C99         C217   1.485       .  S
O101        C104   1.268       .  A
O102        C104   1.272       .  A
C104        C206   1.485       .  S
O105        C110   1.269       .  A
O106        C108   1.269       .  A
C107        O109   1.271       .  A
C107        C137   1.478       .  S
C108        C177   1.483       .  S
C110        C406   1.480       .  S
Fe111       O127   2.067       .  S
Fe111       O117   2.074       .  S
Fe111       O124   2.076       .  S
Fe111       O116   2.060       .  S
Fe111       O122   1.980       .  S
Fe112       O115   2.053       .  S
Fe112       O119   2.073       .  S
Fe112       O123   2.051       .  S
Fe112       O128   2.066       .  S
Fe112       O122   1.978       .  S
Fe113       O131   2.069       .  S
Fe113       O118   2.064       .  S
Fe113       O125   2.059       .  S
Fe113       O114   2.072       .  S
Fe113       O122   1.979       .  S
O114        C121   1.272       .  A
O115        C129   1.267       .  A
O116        C121   1.269       .  A
O117        C120   1.270       .  A
O118        C130   1.269       .  A
O119        C132   1.271       .  A
C120        O125   1.267       .  A
C120        C237   1.487       .  S
C121        C306   1.486       .  S
O123        C126   1.265       .  A
O124        C126   1.269       .  A
C126        C277   1.485       .  S
O127        C132   1.271       .  A
O128        C130   1.269       .  A
C129        O131   1.270       .  A
C129        C166   1.478       .  S
C130        C146   1.484       .  S
C132        C266   1.491       .  S
C133        C134   1.406       .  A
C133        C138   1.397       .  A
C133        H143   1.083       .  S
C134        C139   1.487       .  S
C134        C135   1.409       .  A
C135        C136   1.399       .  A
C135        F140   1.357       .  S
C136        C137   1.405       .  A
C136        H141   1.084       .  S
C137        C138   1.407       .  A
C138        F142   1.358       .  S
C139        C144   1.408       .  A
C139        C148   1.405       .  A
C144        C145   1.399       .  A
C144        F149   1.357       .  S
C145        C146   1.406       .  A
C145        H150   1.083       .  S
C146        C147   1.409       .  A
C147        C148   1.397       .  A
C147        F151   1.358       .  S
C148        H152   1.083       .  S
C153        C154   1.405       .  A
C153        C158   1.396       .  A
C153        H163   1.082       .  S
C154        C159   1.486       .  S
C154        C155   1.408       .  A
C155        C156   1.399       .  A
C155        F160   1.358       .  S
C156        C157   1.406       .  A
C156        H161   1.083       .  S
C157        C158   1.409       .  A
C158        F162   1.357       .  S
C159        C164   1.409       .  A
C159        C168   1.404       .  A
C164        C165   1.399       .  A
C164        F169   1.357       .  S
C165        C166   1.404       .  A
C165        H170   1.084       .  S
C166        C167   1.408       .  A
C167        C168   1.395       .  A
C167        F171   1.358       .  S
C168        H172   1.083       .  S
C173        C174   1.404       .  A
C173        C178   1.395       .  A
C173        H183   1.083       .  S
C174        C179   1.486       .  S
C174        C175   1.408       .  A
C175        C176   1.401       .  A
C175        F180   1.357       .  S
C176        C177   1.406       .  A
C176        H181   1.082       .  S
C177        C178   1.410       .  A
C178        F182   1.358       .  S
C179        C184   1.407       .  A
C179        C188   1.406       .  A
C184        C185   1.396       .  A
C184        F189   1.357       .  S
C185        C186   1.407       .  A
C185        H190   1.084       .  S
C186        C187   1.410       .  A
C187        C188   1.398       .  A
C187        F191   1.357       .  S
C188        H192   1.084       .  S
C193        C194   1.401       .  A
C193        C198   1.399       .  A
C193        H203   1.084   1_455  S
C194        C691   1.473   1_454  S
C194        C195   1.401       .  A
C195        C196   1.396       .  A
C195        F200   1.358   1_554  S
C196        C197   1.410       .  A
C196        H201   1.084       .  S
C197        C198   1.411       .  A
C198        F202   1.357       .  S
C199        C686   1.473   1_655  S
C199        C204   1.401       .  A
C199        C208   1.401       .  A
C204        C205   1.395       .  A
C204        F209   1.357       .  S
C205        C206   1.408       .  A
C205        H210   1.082       .  S
C206        C207   1.412       .  A
C207        C208   1.399       .  A
C207        F211   1.357       .  S
C208        H704   1.083       .  S
H212        C700   1.083   1_554  S
C213        C214   1.402       .  A
C213        C218   1.398       .  A
C213        H223   1.084       .  S
C214        C219   1.484   1_655  S
C214        C215   1.407       .  A
C215        C216   1.402       .  A
C215        F220   1.357   1_655  S
C216        C217   1.407       .  A
C216        H221   1.084       .  S
C217        C218   1.411       .  A
C218        F222   1.358       .  S
C219        C224   1.405       .  A
C219        C228   1.402       .  A
C224        C225   1.400       .  A
C224        F229   1.358   1_455  S
C225        C226   1.409       .  A
C225        H230   1.083       .  S
C226        C227   1.414       .  A
C227        C228   1.401       .  A
C227        F231   1.357       .  S
C228        H232   1.083       .  S
C233        C234   1.403       .  A
C233        C238   1.398       .  A
C233        H243   1.083       .  S
C234        C239   1.481       .  S
C234        C235   1.405       .  A
C235        C236   1.401       .  A
C235        F240   1.358       .  S
C236        C237   1.409       .  A
C236        H241   1.083       .  S
C237        C238   1.410       .  A
C238        F242   1.357       .  S
C239        C244   1.405       .  A
C239        C248   1.401       .  A
C244        C245   1.399       .  A
C244        F249   1.357       .  S
C245        C246   1.407       .  A
C245        H250   1.083       .  S
C246        C247   1.414       .  A
C247        C248   1.399       .  A
C247        F251   1.358       .  S
C248        H252   1.084       .  S
C253        C254   1.403       .  A
C253        C258   1.401       .  A
C253        H755   1.083       .  S
C254        C751   1.484   1_554  S
C254        C255   1.406       .  A
C255        C256   1.399       .  A
C255        F260   1.358       .  S
C256        C257   1.407       .  A
C256        H261   1.083       .  S
C257        C258   1.411       .  A
C258        F262   1.357       .  S
C259        C746   1.484       .  S
C259        C264   1.405       .  A
C259        C268   1.403       .  A
H263        C745   1.083       .  S
C264        C265   1.399       .  A
C264        F269   1.358       .  S
C265        C266   1.409       .  A
C265        H270   1.083       .  S
C266        C267   1.413       .  A
C267        C268   1.401       .  A
C267        F271   1.357       .  S
C268        H764   1.083       .  S
H272        C760   1.083   1_554  S
C273        C274   1.404       .  A
C273        C278   1.398       .  A
C273        H283   1.084   1_545  S
C274        C771   1.480   1_545  S
C274        C275   1.404       .  A
C275        C276   1.397       .  A
C275        F772   1.358       .  S
C276        C277   1.409       .  A
C276        H281   1.084       .  S
C277        C278   1.409       .  A
C278        F282   1.357       .  S
C279        C766   1.480   1_564  S
C279        C284   1.404       .  A
C279        C288   1.403       .  A
F280        C767   1.358       .  S
C284        C285   1.396       .  A
C284        F289   1.357   1_565  S
C285        C286   1.407       .  A
C285        H290   1.083       .  S
C286        C287   1.412       .  A
C287        C288   1.399       .  A
C287        F291   1.358       .  S
C288        H784   1.083   1_554  S
H292        C780   1.083       .  S
C293        C294   1.402       .  A
C293        C298   1.399       .  A
C293        H303   1.084   1_565  S
C294        C299   1.475   1_565  S
C294        C295   1.401       .  A
C295        C296   1.396       .  A
C295        F300   1.358       .  S
C296        C297   1.409       .  A
C296        H301   1.083       .  S
C297        C298   1.411       .  A
C298        F302   1.357       .  S
C299        C304   1.402       .  A
C299        C308   1.401       .  A
C304        C305   1.398       .  A
C304        F309   1.357       .  S
C305        C306   1.409       .  A
C305        H310   1.083       .  S
C306        C307   1.412       .  A
C307        C308   1.398       .  A
C307        F311   1.358       .  S
C308        H312   1.084   1_545  S
C313        C314   1.402       .  A
C313        C318   1.396       .  A
C313        H323   1.083       .  S
C314        C319   1.479   1_455  S
C314        C315   1.405       .  A
C315        C316   1.398       .  A
C315        F320   1.358       .  S
C316        C317   1.408       .  A
C316        H321   1.083       .  S
C317        C318   1.411       .  A
C318        F322   1.357       .  S
C319        C324   1.405       .  A
C319        C328   1.401       .  A
C324        C325   1.397       .  A
C324        F329   1.358   1_655  S
C325        C326   1.407       .  A
C325        H330   1.083       .  S
C326        C327   1.412       .  A
C327        C328   1.397       .  A
C327        F331   1.357       .  S
C328        H332   1.083       .  S
C333        C334   1.406       .  A
C333        C338   1.399       .  A
C333        H343   1.083   1_455  S
C334        C831   1.485   1_454  S
C334        C335   1.405       .  A
C335        C336   1.397       .  A
C335        F832   1.358   1_554  S
C336        C337   1.409       .  A
C336        H341   1.083       .  S
C337        C338   1.409       .  A
C338        F342   1.357       .  S
C339        C826   1.485   1_655  S
C339        C344   1.405       .  A
C339        C348   1.406       .  A
F340        C827   1.358       .  S
C344        C345   1.396       .  A
C344        F349   1.357       .  S
C345        C346   1.406       .  A
C345        H350   1.083       .  S
C346        C347   1.409       .  A
C347        C348   1.401       .  A
C347        F351   1.358       .  S
C348        H352   1.083   1_655  S
C353        C354   1.406       .  A
C353        C358   1.399       .  A
C353        H363   1.082       .  S
C354        C359   1.484       .  S
C354        C355   1.406       .  A
C355        C356   1.396       .  A
C355        F360   1.357       .  S
C356        C357   1.405       .  A
C356        H361   1.082       .  S
C357        C358   1.408       .  A
C358        F362   1.358       .  S
C359        C364   1.406       .  A
C359        C368   1.406       .  A
C364        C365   1.395       .  A
C364        F369   1.358       .  S
C365        C366   1.406       .  A
C365        H370   1.083       .  S
C366        C367   1.409       .  A
C367        C368   1.400       .  A
C367        F371   1.357       .  S
C368        H372   1.083       .  S
C373        C374   1.403       .  A
C373        C378   1.399       .  A
C373        H383   1.083   1_565  S
C374        C379   1.482   1_565  S
C374        C375   1.404       .  A
C375        C376   1.399       .  A
C375        F380   1.358       .  S
C376        C377   1.409       .  A
C376        H381   1.083       .  S
C377        C378   1.410       .  A
C378        F382   1.357       .  S
C379        C384   1.406       .  A
C379        C388   1.403       .  A
C384        C385   1.399       .  A
C384        F389   1.358       .  S
C385        C386   1.407       .  A
C385        H390   1.083       .  S
C386        C387   1.411       .  A
C387        C388   1.399       .  A
C387        F391   1.357       .  S
C388        H392   1.083       .  S
C393        C394   1.400       .  A
C393        C398   1.396       .  A
C393        H403   1.083   1_565  S
C394        C891   1.475   1_564  S
C394        C395   1.403       .  A
C395        C396   1.399       .  A
C395        F892   1.358   1_554  S
C396        C397   1.409       .  A
C396        H401   1.083       .  S
C397        C398   1.412       .  A
C398        F402   1.357       .  S
C399        C886   1.475   1_545  S
C399        C404   1.402       .  A
C399        C408   1.403       .  A
F400        C887   1.358       .  S
C404        C405   1.395       .  A
C404        F901   1.358       .  S
C405        C406   1.407       .  A
C405        H410   1.083       .  S
C406        C407   1.409       .  A
C407        C408   1.400       .  A
C407        F411   1.357       .  S
C408        H412   1.083   1_545  S
F409        C896   1.358   1_554  S
C413        C414   1.402       .  A
C413        C418   1.399       .  A
C413        H915   1.083       .  S
C414        C911   1.478   1_554  S
C414        C415   1.404       .  A
C415        C416   1.396       .  A
C415        F420   1.358       .  S
C416        C417   1.407       .  A
C416        H421   1.082       .  S
C417        C418   1.412       .  A
C418        F422   1.357       .  S
C419        C906   1.478       .  S
C419        C424   1.403       .  A
C419        C428   1.403       .  A
H423        C905   1.083       .  S
C424        C425   1.398       .  A
C424        F429   1.358       .  S
C425        C426   1.410       .  A
C425        H430   1.084       .  S
C426        C427   1.410       .  A
C427        C428   1.397       .  A
C427        F431   1.357       .  S
C428        H432   1.084       .  S
C433        C434   1.400       .  A
C433        C438   1.396       .  A
C433        H443   1.083       .  S
C434        C439   1.477       .  S
C434        C435   1.405       .  A
C435        C436   1.399       .  A
C435        F440   1.358       .  S
C436        C437   1.407       .  A
C436        H441   1.082       .  S
C437        C438   1.413       .  A
C438        F442   1.358       .  S
C439        C444   1.405       .  A
C439        C448   1.400       .  A
C444        C445   1.398       .  A
C444        F449   1.358       .  S
C445        C446   1.407       .  A
C445        H450   1.084       .  S
C446        C447   1.411       .  A
C447        C448   1.396       .  A
C447        F451   1.357       .  S
C448        H452   1.084       .  S
C453        C454   1.406       .  A
C453        C458   1.400       .  A
C453        H463   1.082       .  S
C454        C459   1.482       .  S
C454        C455   1.405       .  A
C455        C456   1.395       .  A
C455        F460   1.358       .  S
C456        C457   1.407       .  A
C456        H461   1.082       .  S
C457        C458   1.409       .  A
C458        F462   1.357       .  S
C459        C464   1.407       .  A
C459        C468   1.402       .  A
C464        C465   1.400       .  A
C464        F469   1.357       .  S
C465        C466   1.407       .  A
C465        H470   1.083       .  S
C466        C467   1.411       .  A
C467        C468   1.395       .  A
C467        F471   1.358       .  S
C468        H472   1.083       .  S
C473        C474   1.404       .  A
C473        C478   1.398       .  A
C473        H483   1.082       .  S
C474        C479   1.482       .  S
C474        C475   1.406       .  A
C475        C476   1.396       .  A
C475        F480   1.358       .  S
C476        C477   1.407       .  A
C476        H481   1.082       .  S
C477        C478   1.410       .  A
C478        F482   1.357       .  S
C479        C484   1.407       .  A
C479        C488   1.404       .  A
C484        C485   1.400       .  A
C484        F489   1.357       .  S
C485        C486   1.405       .  A
C485        H490   1.084       .  S
C486        C487   1.407       .  A
C487        C488   1.393       .  A
C487        F491   1.358       .  S
C488        H492   1.083       .  S
Fe493       O509   2.062       .  S
Fe493       O499   2.068       .  S
Fe493       O506   2.073       .  S
Fe493       O498   2.058       .  S
Fe493       O504   1.975       .  S
Fe494       O497   2.061       .  S
Fe494       O501   2.055       .  S
Fe494       O505   2.061       .  S
Fe494       O510   2.058       .  S
Fe494       O504   1.976       .  S
Fe495       O513   2.065       .  S
Fe495       O500   2.069       .  S
Fe495       O507   2.063       .  S
Fe495       O496   2.066       .  S
Fe495       O504   1.978       .  S
O496        C503   1.268       .  A
O497        C511   1.268       .  A
O498        C503   1.267       .  A
O499        C502   1.271       .  A
O500        C512   1.270       .  A
O501        C514   1.266       .  A
C502        O507   1.269       .  A
C502        C909   1.486       .  S
C503        C889   1.486       .  S
O505        C508   1.270       .  A
O506        C508   1.271       .  A
C508        C869   1.487       .  S
O509        C514   1.268       .  A
O510        C512   1.267       .  A
C511        O513   1.269       .  A
C511        C969   1.484       .  S
C512        C958   1.484       .  S
C514        C938   1.482       .  S
Fe515       O531   2.066       .  S
Fe515       O521   2.071       .  S
Fe515       O528   2.069       .  S
Fe515       O520   2.068       .  S
Fe515       O526   1.970       .  S
Fe516       O519   2.067       .  S
Fe516       O523   2.064       .  S
Fe516       O527   2.059       .  S
Fe516       O532   2.071       .  S
Fe516       O526   1.971       .  S
Fe517       O535   2.061       .  S
Fe517       O522   2.056       .  S
Fe517       O529   2.054       .  S
Fe517       O518   2.062       .  S
Fe517       O526   1.971       .  S
O518        C525   1.268       .  A
O519        C533   1.269       .  A
O520        C525   1.270       .  A
O521        C524   1.271       .  A
O522        C534   1.268       .  A
O523        C536   1.269       .  A
C524        O529   1.267       .  A
C524        C778   1.485       .  S
C525        C829   1.486       .  S
O527        C530   1.269       .  A
O528        C530   1.270       .  A
C530        C809   1.484       .  S
O531        C536   1.269       .  A
O532        C534   1.270       .  A
C533        O535   1.268       .  A
C533        C949   1.483       .  S
C534        C849   1.479       .  S
C536        C789   1.486       .  S
Fe537       O553   2.081       .  S
Fe537       O543   2.071       .  S
Fe537       O550   2.065       .  S
Fe537       O542   2.082       .  S
Fe537       O548   1.972       .  S
Fe538       O541   2.063       .  S
Fe538       O545   2.064       .  S
Fe538       O549   2.060       .  S
Fe538       O554   2.065       .  S
Fe538       O548   1.971       .  S
Fe539       O557   2.062       .  S
Fe539       O544   2.066       .  S
Fe539       O551   2.062       .  S
Fe539       O540   2.066       .  S
Fe539       O548   1.972       .  S
O540        C547   1.270       .  A
O541        C555   1.268       .  A
O542        C547   1.274       .  A
O543        C546   1.270       .  A
O544        C556   1.270       .  A
O545        C558   1.270       .  A
C546        O551   1.267       .  A
C546        C738   1.489       .  S
C547        C718   1.493       .  S
O549        C552   1.268       .  A
O550        C552   1.269       .  A
C552        C689   1.486       .  S
O553        C558   1.274       .  A
O554        C556   1.269       .  A
C555        O557   1.268       .  A
C555        C978   1.477       .  S
C556        C858   1.483       .  S
C558        C749   1.488       .  S
Fe559       O575   2.069       .  S
Fe559       O565   2.075       .  S
Fe559       O572   2.073       .  S
Fe559       O564   2.068       .  S
Fe559       O570   1.975       .  S
Fe560       O563   2.057       .  S
Fe560       O567   2.058       .  S
Fe560       O571   2.054       .  S
Fe560       O576   2.061       .  S
Fe560       O570   1.970       .  S
Fe561       O579   2.070       .  S
Fe561       O566   2.062       .  S
Fe561       O573   2.053       .  S
Fe561       O562   2.065       .  S
Fe561       O570   1.970       .  S
O562        C569   1.270       .  A
O563        C577   1.268       .  A
O564        C569   1.270       .  A
O565        C568   1.271       .  A
O566        C578   1.268       .  A
O567        C580   1.267       .  A
C568        O573   1.268       .  A
C568        C918   1.486       .  S
C569        C838   1.484       .  S
O571        C574   1.267       .  A
O572        C574   1.271       .  A
C574        C818   1.485       .  S
O575        C580   1.270       .  A
O576        C578   1.268       .  A
C577        O579   1.271       .  A
C577        C649   1.482       .  S
C578        C678   1.485       .  S
C580        C929   1.484       .  S
Fe581       O597   2.064       .  S
Fe581       O587   2.078       .  S
Fe581       O594   2.073       .  S
Fe581       O586   2.069       .  S
Fe581       O592   1.966       .  S
Fe582       O585   2.060       .  S
Fe582       O589   2.065       .  S
Fe582       O593   2.058       .  S
Fe582       O598   2.065       .  S
Fe582       O592   1.966       .  S
Fe583       O601   2.072       .  S
Fe583       O588   2.070       .  S
Fe583       O595   2.059       .  S
Fe583       O584   2.074       .  S
Fe583       O592   1.962       .  S
O584        C591   1.271       .  A
O585        C599   1.269       .  A
O586        C591   1.271       .  A
O587        C590   1.271       .  A
O588        C600   1.271       .  A
O589        C602   1.270       .  A
C590        O595   1.268       .  A
C590        C878   1.485       .  S
C591        C709   1.485       .  S
O593        C596   1.268       .  A
O594        C596   1.272       .  A
C596        C698   1.485       .  S
O597        C602   1.269       .  A
O598        C600   1.269       .  A
C599        O601   1.271       .  A
C599        C629   1.478       .  S
C600        C669   1.483       .  S
C602        C898   1.480       .  S
Fe603       O619   2.067       .  S
Fe603       O609   2.074       .  S
Fe603       O616   2.076       .  S
Fe603       O608   2.060       .  S
Fe603       O614   1.980       .  S
Fe604       O607   2.053       .  S
Fe604       O611   2.073       .  S
Fe604       O615   2.051       .  S
Fe604       O620   2.066       .  S
Fe604       O614   1.978       .  S
Fe605       O623   2.069       .  S
Fe605       O610   2.064       .  S
Fe605       O617   2.059       .  S
Fe605       O606   2.072       .  S
Fe605       O614   1.979       .  S
O606        C613   1.272       .  A
O607        C621   1.267       .  A
O608        C613   1.269       .  A
O609        C612   1.270       .  A
O610        C622   1.269       .  A
O611        C624   1.271       .  A
C612        O617   1.267       .  A
C612        C729   1.487       .  S
C613        C798   1.486       .  S
O615        C618   1.265       .  A
O616        C618   1.269       .  A
C618        C769   1.485       .  S
O619        C624   1.271       .  A
O620        C622   1.269       .  A
C621        O623   1.270       .  A
C621        C658   1.478       .  S
C622        C638   1.484       .  S
C624        C758   1.491       .  S
C625        C626   1.406       .  A
C625        C630   1.397       .  A
C625        H635   1.083       .  S
C626        C631   1.487       .  S
C626        C627   1.409       .  A
C627        C628   1.399       .  A
C627        F632   1.357       .  S
C628        C629   1.405       .  A
C628        H633   1.084       .  S
C629        C630   1.407       .  A
C630        F634   1.358       .  S
C631        C636   1.408       .  A
C631        C640   1.405       .  A
C636        C637   1.399       .  A
C636        F641   1.357       .  S
C637        C638   1.406       .  A
C637        H642   1.083       .  S
C638        C639   1.409       .  A
C639        C640   1.397       .  A
C639        F643   1.358       .  S
C640        H644   1.083       .  S
C645        C646   1.405       .  A
C645        C650   1.396       .  A
C645        H655   1.082       .  S
C646        C651   1.486       .  S
C646        C647   1.408       .  A
C647        C648   1.399       .  A
C647        F652   1.358       .  S
C648        C649   1.406       .  A
C648        H653   1.083       .  S
C649        C650   1.409       .  A
C650        F654   1.357       .  S
C651        C656   1.409       .  A
C651        C660   1.404       .  A
C656        C657   1.399       .  A
C656        F661   1.357       .  S
C657        C658   1.404       .  A
C657        H662   1.084       .  S
C658        C659   1.408       .  A
C659        C660   1.395       .  A
C659        F663   1.358       .  S
C660        H664   1.083       .  S
C665        C666   1.404       .  A
C665        C670   1.395       .  A
C665        H675   1.083       .  S
C666        C671   1.486       .  S
C666        C667   1.408       .  A
C667        C668   1.401       .  A
C667        F672   1.357       .  S
C668        C669   1.406       .  A
C668        H673   1.082       .  S
C669        C670   1.410       .  A
C670        F674   1.358       .  S
C671        C676   1.407       .  A
C671        C680   1.406       .  A
C676        C677   1.396       .  A
C676        F681   1.357       .  S
C677        C678   1.407       .  A
C677        H682   1.084       .  S
C678        C679   1.410       .  A
C679        C680   1.398       .  A
C679        F683   1.357       .  S
C680        H684   1.084       .  S
C685        C686   1.401       .  A
C685        C690   1.399       .  A
C685        H695   1.084   1_455  S
C686        C687   1.401       .  A
C687        C688   1.396       .  A
C687        F692   1.358       .  S
C688        C689   1.410       .  A
C688        H693   1.084       .  S
C689        C690   1.411       .  A
C690        F694   1.357       .  S
C691        C696   1.401       .  A
C691        C700   1.401       .  A
C696        C697   1.395       .  A
C696        F701   1.357       .  S
C697        C698   1.408       .  A
C697        H702   1.082       .  S
C698        C699   1.412       .  A
C699        C700   1.399       .  A
C699        F703   1.357       .  S
C705        C706   1.402       .  A
C705        C710   1.398       .  A
C705        H715   1.084       .  S
C706        C711   1.484   1_655  S
C706        C707   1.407       .  A
C707        C708   1.402       .  A
C707        F712   1.357   1_655  S
C708        C709   1.407       .  A
C708        H713   1.084       .  S
C709        C710   1.411       .  A
C710        F714   1.358       .  S
C711        C716   1.405       .  A
C711        C720   1.402       .  A
C716        C717   1.400       .  A
C716        F721   1.358   1_455  S
C717        C718   1.409       .  A
C717        H722   1.083       .  S
C718        C719   1.414       .  A
C719        C720   1.401       .  A
C719        F723   1.357       .  S
C720        H724   1.083       .  S
C725        C726   1.403       .  A
C725        C730   1.398       .  A
C725        H735   1.083       .  S
C726        C731   1.481       .  S
C726        C727   1.405       .  A
C727        C728   1.401       .  A
C727        F732   1.358       .  S
C728        C729   1.409       .  A
C728        H733   1.083       .  S
C729        C730   1.410       .  A
C730        F734   1.357       .  S
C731        C736   1.405       .  A
C731        C740   1.401       .  A
C736        C737   1.399       .  A
C736        F741   1.357       .  S
C737        C738   1.407       .  A
C737        H742   1.083       .  S
C738        C739   1.414       .  A
C739        C740   1.399       .  A
C739        F743   1.358       .  S
C740        H744   1.084       .  S
C745        C746   1.403       .  A
C745        C750   1.401       .  A
C746        C747   1.406       .  A
C747        C748   1.399       .  A
C747        F752   1.358       .  S
C748        C749   1.407       .  A
C748        H753   1.083       .  S
C749        C750   1.411       .  A
C750        F754   1.357       .  S
C751        C756   1.405       .  A
C751        C760   1.403       .  A
C756        C757   1.399       .  A
C756        F761   1.358       .  S
C757        C758   1.409       .  A
C757        H762   1.083       .  S
C758        C759   1.413       .  A
C759        C760   1.401       .  A
C759        F763   1.357       .  S
C765        C766   1.404       .  A
C765        C770   1.398       .  A
C765        H775   1.084   1_545  S
C766        C767   1.404       .  A
C767        C768   1.397       .  A
C768        C769   1.409       .  A
C768        H773   1.084       .  S
C769        C770   1.409       .  A
C770        F774   1.357       .  S
C771        C776   1.404       .  A
C771        C780   1.403       .  A
C776        C777   1.396       .  A
C776        F781   1.357   1_565  S
C777        C778   1.407       .  A
C777        H782   1.083       .  S
C778        C779   1.412       .  A
C779        C780   1.399       .  A
C779        F783   1.358       .  S
C785        C786   1.402       .  A
C785        C790   1.399       .  A
C785        H795   1.084   1_565  S
C786        C791   1.475   1_565  S
C786        C787   1.401       .  A
C787        C788   1.396       .  A
C787        F792   1.358       .  S
C788        C789   1.409       .  A
C788        H793   1.083       .  S
C789        C790   1.411       .  A
C790        F794   1.357       .  S
C791        C796   1.402       .  A
C791        C800   1.401       .  A
C796        C797   1.398       .  A
C796        F801   1.357       .  S
C797        C798   1.409       .  A
C797        H802   1.083       .  S
C798        C799   1.412       .  A
C799        C800   1.398       .  A
C799        F803   1.358       .  S
C800        H804   1.084   1_545  S
C805        C806   1.402       .  A
C805        C810   1.396       .  A
C805        H815   1.083       .  S
C806        C811   1.479   1_455  S
C806        C807   1.405       .  A
C807        C808   1.398       .  A
C807        F812   1.358       .  S
C808        C809   1.408       .  A
C808        H813   1.083       .  S
C809        C810   1.411       .  A
C810        F814   1.357       .  S
C811        C816   1.405       .  A
C811        C820   1.401       .  A
C816        C817   1.397       .  A
C816        F821   1.358   1_655  S
C817        C818   1.407       .  A
C817        H822   1.083       .  S
C818        C819   1.412       .  A
C819        C820   1.397       .  A
C819        F823   1.357       .  S
C820        H824   1.083       .  S
C825        C826   1.406       .  A
C825        C830   1.399       .  A
C825        H835   1.083   1_455  S
C826        C827   1.405       .  A
C827        C828   1.397       .  A
C828        C829   1.409       .  A
C828        H833   1.083       .  S
C829        C830   1.409       .  A
C830        F834   1.357       .  S
C831        C836   1.405       .  A
C831        C840   1.406       .  A
C836        C837   1.396       .  A
C836        F841   1.357   1_556  S
C837        C838   1.406       .  A
C837        H842   1.083       .  S
C838        C839   1.409       .  A
C839        C840   1.401       .  A
C839        F843   1.358       .  S
C840        H844   1.083   1_655  S
C845        C846   1.406       .  A
C845        C850   1.399       .  A
C845        H855   1.082       .  S
C846        C851   1.484       .  S
C846        C847   1.406       .  A
C847        C848   1.396       .  A
C847        F852   1.357       .  S
C848        C849   1.405       .  A
C848        H853   1.082       .  S
C849        C850   1.408       .  A
C850        F854   1.358       .  S
C851        C856   1.406       .  A
C851        C860   1.406       .  A
C856        C857   1.395       .  A
C856        F861   1.358       .  S
C857        C858   1.406       .  A
C857        H862   1.083       .  S
C858        C859   1.409       .  A
C859        C860   1.400       .  A
C859        F863   1.357       .  S
C860        H864   1.083       .  S
C865        C866   1.403       .  A
C865        C870   1.399       .  A
C865        H875   1.083   1_565  S
C866        C871   1.482   1_565  S
C866        C867   1.404       .  A
C867        C868   1.399       .  A
C867        F872   1.358       .  S
C868        C869   1.409       .  A
C868        H873   1.083       .  S
C869        C870   1.410       .  A
C870        F874   1.357       .  S
C871        C876   1.406       .  A
C871        C880   1.403       .  A
C876        C877   1.399       .  A
C876        F881   1.358       .  S
C877        C878   1.407       .  A
C877        H882   1.083       .  S
C878        C879   1.410       .  A
C879        C880   1.399       .  A
C879        F883   1.357       .  S
C880        H884   1.083       .  S
C885        C886   1.400       .  A
C885        C890   1.396       .  A
C885        H895   1.083   1_565  S
C886        C887   1.403       .  A
C887        C888   1.399       .  A
C888        C889   1.409       .  A
C888        H893   1.083       .  S
C889        C890   1.412       .  A
C890        F894   1.357       .  S
C891        C896   1.402       .  A
C891        C900   1.403       .  A
C896        C897   1.395       .  A
C897        C898   1.407       .  A
C897        H902   1.083       .  S
C898        C899   1.409       .  A
C899        C900   1.400       .  A
C899        F903   1.357       .  S
C900        H904   1.083   1_545  S
C905        C906   1.402       .  A
C905        C910   1.399       .  A
C906        C907   1.404       .  A
C907        C908   1.396       .  A
C907        F912   1.358       .  S
C908        C909   1.407       .  A
C908        H913   1.082       .  S
C909        C910   1.412       .  A
C910        F914   1.357       .  S
C911        C916   1.403       .  A
C911        C920   1.403       .  A
C916        C917   1.398       .  A
C916        F921   1.358   1_556  S
C917        C918   1.410       .  A
C917        H922   1.084       .  S
C918        C919   1.410       .  A
C919        C920   1.397       .  A
C919        F923   1.357       .  S
C920        H924   1.084       .  S
C925        C926   1.400       .  A
C925        C930   1.396       .  A
C925        H935   1.083       .  S
C926        C931   1.477       .  S
C926        C927   1.405       .  A
C927        C928   1.399       .  A
C927        F932   1.358       .  S
C928        C929   1.407       .  A
C928        H933   1.082       .  S
C929        C930   1.413       .  A
C930        F934   1.358       .  S
C931        C936   1.405       .  A
C931        C940   1.400       .  A
C936        C937   1.398       .  A
C936        F941   1.358       .  S
C937        C938   1.407       .  A
C937        H942   1.084       .  S
C938        C939   1.411       .  A
C939        C940   1.396       .  A
C939        F943   1.357       .  S
C940        H944   1.084       .  S
C945        C946   1.406       .  A
C945        C950   1.400       .  A
C945        H955   1.082       .  S
C946        C951   1.482       .  S
C946        C947   1.405       .  A
C947        C948   1.395       .  A
C947        F952   1.358       .  S
C948        C949   1.407       .  A
C948        H953   1.082       .  S
C949        C950   1.409       .  A
C950        F954   1.357       .  S
C951        C956   1.407       .  A
C951        C960   1.402       .  A
C956        C957   1.400       .  A
C956        F961   1.357       .  S
C957        C958   1.407       .  A
C957        H962   1.082       .  S
C958        C959   1.411       .  A
C959        C960   1.395       .  A
C959        F963   1.358       .  S
C960        H964   1.083       .  S
C965        C966   1.404       .  A
C965        C970   1.398       .  A
C965        H975   1.082       .  S
C966        C971   1.482       .  S
C966        C967   1.406       .  A
C967        C968   1.396       .  A
C967        F972   1.358       .  S
C968        C969   1.407       .  A
C968        H973   1.082       .  S
C969        C970   1.410       .  A
C970        F974   1.357       .  S
C971        C976   1.407       .  A
C971        C980   1.404       .  A
C976        C977   1.400       .  A
C976        F981   1.357       .  S
C977        C978   1.405       .  A
C977        H982   1.084       .  S
C978        C979   1.407       .  A
C979        C980   1.393       .  A
C979        F983   1.358       .  S
C980        H984   1.083       .  S
