geometry optimzed in LAMMPS
_audit_creation_date              2020-11-30 
_audit_creation_method            'lammps2cif' 
_symmetry_space_group_name_H-M    'P1' 
_symmetry_Int_Tables_number       1 
_symmetry_cell_setting            triclinic 
loop_ 
_symmetry_equiv_pos_as_xyz 
  x,y,z 
_cell_length_a                    38.45450778 
_cell_length_b                    38.656696119476365 
_cell_length_c                    27.71545961363287 
_cell_angle_alpha                 89.67929615229261 
_cell_angle_beta                  90.03978736018625 
_cell_angle_gamma                 119.7345435992789 
loop_ 
_atom_site_label 
_atom_site_type_symbol 
_atom_site_fract_x 
_atom_site_fract_y 
_atom_site_fract_z 
_atom_site_charge 
Fe1        Fe  0.19683864  0.74586662  0.16459323     1.65800
Fe2        Fe  0.25705929  0.80300406  0.25563141     1.73200
Fe3        Fe  0.18444225  0.82018840  0.21206864     1.54400
O4          O  0.19035728  0.83093046  0.13733942    -0.82200
O5          O  0.23243268  0.81840622  0.31163844    -0.80500
O6          O  0.18689002  0.77525005  0.10929788    -0.84700
O7          O  0.13666682  0.71890557  0.18363304    -0.79600
O8          O  0.23685443  0.87386297  0.22352146    -0.81300
O9          O  0.22962746  0.74514526  0.28214939    -0.84100
C10         C  0.11448445  0.73360294  0.19408140     0.96700
C11         C  0.18623130  0.80739662  0.10294193     1.04100
O12         O  0.21277098  0.78977529  0.21042711    -1.13100
O13         O  0.28952607  0.78964198  0.20814467    -0.75500
O14         O  0.25520122  0.76750895  0.14001343    -0.79000
O15         O  0.12863255  0.77048175  0.20244476    -0.79700
C16         C  0.28688514  0.77876830  0.16469744     0.95600
O17         O  0.20432467  0.71071877  0.21437271    -0.77600
O18         O  0.28769853  0.86185147  0.23241708    -0.82800
C19         C  0.19910354  0.81637061  0.31979788     0.98200
C20         C  0.27403582  0.88569468  0.22831718     1.04100
O21         O  0.17456829  0.81159892  0.28626217    -0.78500
C22         C  0.21463081  0.71293558  0.25823118     1.02400
Fe23       Fe  0.20211224  0.75240746  0.66795139     1.65800
Fe24       Fe  0.26238700  0.80879923  0.76035712     1.73200
Fe25       Fe  0.19284838  0.82985304  0.71236078     1.54400
O26         O  0.19064102  0.83184725  0.63718635    -0.82200
O27         O  0.23078009  0.81203344  0.81795242    -0.80500
O28         O  0.20497717  0.78638123  0.60974597    -0.84700
O29         O  0.14135889  0.73252906  0.67798184    -0.79600
O30         O  0.24692448  0.88152292  0.70727513    -0.81300
O31         O  0.24167697  0.74937984  0.77698232    -0.84100
C32         C  0.12049578  0.74578812  0.69787580     0.96700
C33         C  0.19827555  0.81487032  0.60303506     1.04100
O34         O  0.21891245  0.79679158  0.71383732    -1.13100
O35         O  0.30003317  0.80746250  0.70889347    -0.75500
O36         O  0.26041020  0.76649030  0.65187830    -0.79000
O37         O  0.13612658  0.78056644  0.71581966    -0.79700
C38         C  0.29481920  0.78809985  0.67030008     0.95600
O39         O  0.19837048  0.71271737  0.71979599    -0.77600
O40         O  0.28951312  0.86984783  0.74951934    -0.82800
C41         C  0.20790592  0.82655600  0.82319438     0.98200
C42         C  0.28094335  0.89291909  0.72602698     1.04100
O43         O  0.19230290  0.83502578  0.78776010    -0.78500
C44         C  0.21785093  0.71599479  0.75798714     1.02400
Fe45       Fe  0.19314452  0.46030191  0.42307650     1.65800
Fe46       Fe  0.25450848  0.46348165  0.33242957     1.73200
Fe47       Fe  0.18032216  0.37474664  0.37330230     1.54400
O48         O  0.18979231  0.37003925  0.44687152    -0.82200
O49         O  0.22804582  0.42539105  0.27460606    -0.80500
O50         O  0.18187825  0.41917045  0.47705997    -0.84700
O51         O  0.13346892  0.42963181  0.40253697    -0.79600
O52         O  0.23111716  0.37115729  0.35759130    -0.81300
O53         O  0.23018797  0.49748030  0.30831122    -0.84100
C54         C  0.11096483  0.39243150  0.39645790     0.96700
C55         C  0.18502588  0.38820623  0.48234474     1.04100
O56         O  0.20922826  0.43291142  0.37626525    -1.13100
O57         O  0.28791208  0.50584610  0.38294873    -0.75500
O58         O  0.25104714  0.49409257  0.44918060    -0.79000
O59         O  0.12511156  0.36945047  0.38846683    -0.79700
C60         C  0.28423990  0.51267090  0.42677585     0.95600
O61         O  0.20237193  0.50487523  0.37520990    -0.77600
O62         O  0.28306793  0.43275282  0.35353114    -0.82800
C63         C  0.19391711  0.39545360  0.26606648     0.98200
C64         C  0.26851660  0.39533483  0.35473525     1.04100
O65         O  0.16907429  0.37575904  0.29959460    -0.78500
C66         C  0.21462342  0.51444298  0.33208870     1.02400
Fe67       Fe  0.20063589  0.46477940  0.91857558     1.65800
Fe68       Fe  0.25634337  0.46302126  0.82451474     1.73200
Fe69       Fe  0.18301308  0.37665029  0.87347665     1.54400
O70         O  0.19669275  0.37503393  0.94620641    -0.82200
O71         O  0.22544868  0.42259029  0.77014046    -0.80500
O72         O  0.18876069  0.42459980  0.97436192    -0.84700
O73         O  0.14068699  0.43595121  0.89900744    -0.79600
O74         O  0.23182963  0.37059814  0.85472389    -0.81300
O75         O  0.23197329  0.49753496  0.80082865    -0.84100
C76         C  0.11692719  0.39864977  0.89675090     0.96700
C77         C  0.19275018  0.39424532  0.98100473     1.04100
O78         O  0.21344438  0.43486921  0.87211538    -1.13100
O79         O  0.29326027  0.50766304  0.87231929    -0.75500
O80         O  0.25956824  0.49658349  0.94141770    -0.79000
O81         O  0.12934055  0.37384615  0.89242639    -0.79700
C82         C  0.29152275  0.51531822  0.91657910     0.95600
O83         O  0.21080722  0.50928749  0.87030135    -0.77600
O84         O  0.28451721  0.43097656  0.84344763    -0.82800
C85         C  0.19068728  0.39255276  0.76512317     0.98200
C86         C  0.26909950  0.39340314  0.84761321     1.04100
O87         O  0.16771157  0.37459424  0.80081888    -0.78500
C88         C  0.21990425  0.51691245  0.82608302     1.02400
Fe89       Fe  0.54427995  0.80240719  0.00520194     1.65800
Fe90       Fe  0.54020061  0.74127852  0.09716476     1.73200
Fe91       Fe  0.63000354  0.81193662  0.05234046     1.54400
O92         O  0.63281028  0.80250056  0.97855450    -0.82200
O93         O  0.57983466  0.76791477  0.15380270    -0.80500
O94         O  0.58449536  0.81286073  0.95025564    -0.84700
O95         O  0.57717894  0.86186677  0.02547214    -0.79600
O96         O  0.63126707  0.76029666  0.06638344    -0.81300
O97         O  0.50761660  0.76732130  0.12087307    -0.84100
C98         C  0.61471746  0.88282869  0.03246897     0.96700
C99         C  0.61477889  0.80856215  0.94375755     1.04100
O100        O  0.57146725  0.78523272  0.05166114    -1.13100
O101        O  0.49624500  0.70835954  0.04689307    -0.75500
O102        O  0.50898456  0.74482040  0.97983194    -0.79000
O103        O  0.63683402  0.86742644  0.03900966    -0.79700
C104        C  0.48920654  0.71217048  0.00291581     0.95600
O105        O  0.49968031  0.79391425  0.05316304    -0.77600
O106        O  0.56932510  0.71043895  0.07857805    -0.82800
C107        C  0.61219785  0.80043380  0.16053248     0.98200
C108        C  0.60659802  0.72361089  0.07332848     1.04100
O109        O  0.63238428  0.82360897  0.12601875    -0.78500
C110        C  0.48994541  0.78188323  0.09635890     1.02400
Fe111      Fe  0.54195681  0.79245312  0.50362921     1.65800
Fe112      Fe  0.53904932  0.73706779  0.60182023     1.73200
Fe113      Fe  0.62819528  0.80441835  0.55190867     1.54400
O114        O  0.63047811  0.79205583  0.47897825    -0.82200
O115        O  0.57892981  0.76683897  0.65677706    -0.80500
O116        O  0.58153159  0.80048051  0.44876079    -0.84700
O117        O  0.57479827  0.85305580  0.51938856    -0.79600
O118        O  0.62921746  0.75310535  0.56886924    -0.81300
O119        O  0.50755030  0.76554418  0.62160485    -0.84100
C120        C  0.61235379  0.87430412  0.52627711     0.96700
C121        C  0.61218237  0.79667804  0.44342494     1.04100
O122        O  0.56974705  0.77796529  0.55250733    -1.13100
O123        O  0.49440255  0.70144946  0.55417142    -0.75500
O124        O  0.50719787  0.73333171  0.48335996    -0.79000
O125        O  0.63435227  0.85901988  0.53480890    -0.79700
C126        C  0.48758456  0.70239415  0.50950757     0.95600
O127        O  0.49785864  0.78678851  0.55065535    -0.77600
O128        O  0.56776333  0.70461801  0.58710027    -0.82800
C129        C  0.61140917  0.79954471  0.66080980     0.98200
C130        C  0.60458554  0.71687066  0.57862121     1.04100
O131        O  0.63184319  0.81971771  0.62457017    -0.78500
C132        C  0.49003120  0.77920033  0.59517741     1.02400
Fe133      Fe  0.79337873  0.25068246  0.40797396     1.65800
Fe134      Fe  0.73112225  0.19175457  0.49862470     1.73200
Fe135      Fe  0.79959198  0.17151365  0.44934317     1.54400
O136        O  0.78680482  0.16062724  0.37585757    -0.82200
O137        O  0.75859066  0.17706819  0.55299863    -0.80500
O138        O  0.80061936  0.22104755  0.35028072    -0.84700
O139        O  0.85341082  0.27404639  0.42645754    -0.79600
O140        O  0.74771983  0.11949495  0.46593213    -0.81300
O141        O  0.75867091  0.24948636  0.52459676    -0.84100
C142        C  0.87303871  0.25559865  0.42846061     0.96700
C143        C  0.79387511  0.18593683  0.34217256     1.04100
O144        O  0.77453763  0.20470621  0.45193135    -1.13100
O145        O  0.69848440  0.20535832  0.45090183    -0.75500
O146        O  0.73557958  0.23258821  0.38484861    -0.79000
O147        O  0.85568382  0.21802243  0.43299935    -0.79700
C148        C  0.70294094  0.21924891  0.40832929     0.95600
O149        O  0.78840512  0.28622792  0.45923314    -0.77600
O150        O  0.69816019  0.13225375  0.47815377    -0.82800
C151        C  0.79195842  0.17813200  0.55813756     0.98200
C152        C  0.71108590  0.10790204  0.47402077     1.04100
O153        O  0.81418266  0.18093148  0.52248155    -0.78500
C154        C  0.77600862  0.28271819  0.50236431     1.02400
Fe155      Fe  0.79768890  0.25453287  0.90117793     1.65800
Fe156      Fe  0.73824442  0.19801634  0.99439861     1.73200
Fe157      Fe  0.80996351  0.18032343  0.95043876     1.54400
O158        O  0.79903785  0.16682171  0.87714843    -0.82200
O159        O  0.76564686  0.18558478  0.05062013    -0.80500
O160        O  0.80620577  0.22346257  0.84600220    -0.84700
O161        O  0.85822921  0.28174831  0.91927069    -0.79600
O162        O  0.75881455  0.12691448  0.96701000    -0.81300
O163        O  0.76430736  0.25629030  0.01771971    -0.84100
C164        C  0.87999407  0.26628464  0.92857778     0.96700
C165        C  0.80231960  0.18904009  0.84126077     1.04100
O166        O  0.78205549  0.21111060  0.94860625    -1.13100
O167        O  0.70406945  0.20848656  0.94595561    -0.75500
O168        O  0.73889186  0.23207848  0.87790224    -0.79000
O169        O  0.86526615  0.22915281  0.93589142    -0.79700
C170        C  0.70668856  0.21912181  0.90221065     0.95600
O171        O  0.79066444  0.29112165  0.95001034    -0.77600
O172        O  0.70793073  0.13858384  0.97486191    -0.82800
C173        C  0.79927964  0.18788491  0.05792540     0.98200
C174        C  0.72173380  0.11486008  0.97268355     1.04100
O175        O  0.82297310  0.19157958  0.02371287    -0.78500
C176        C  0.77933558  0.28865920  0.99364229     1.02400
Fe177      Fe  0.74413477  0.54387813  0.07118444     1.65800
Fe178      Fe  0.79348571  0.53397257  0.16764517     1.73200
Fe179      Fe  0.82066231  0.62599547  0.12341147     1.54400
O180        O  0.83676648  0.62907085  0.05046020    -0.82200
O181        O  0.80534452  0.57256713  0.22388834    -0.80500
O182        O  0.77872276  0.58388656  0.01827900    -0.84700
O183        O  0.71990299  0.57974425  0.08881499    -0.79600
O184        O  0.87093171  0.62353317  0.14277344    -0.81300
O185        O  0.73304402  0.50504688  0.18681391    -0.84100
C186        C  0.73834164  0.61724261  0.09502276     0.96700
C187        C  0.81416279  0.61279852  0.01412663     1.04100
O188        O  0.78611257  0.56795837  0.12076067    -1.13100
O189        O  0.78312559  0.49051902  0.11801116    -0.75500
O190        O  0.76469340  0.50594093  0.04862618    -0.79000
O191        O  0.77536925  0.63687046  0.10481221    -0.79700
C192        C  0.77517796  0.48480179  0.07337349     0.95600
O193        O  0.70291348  0.50014865  0.11643259    -0.77600
O194        O  0.85487345  0.56015181  0.15357821    -0.82800
C195        C  0.80811372  0.60618481  0.23110255     0.98200
C196        C  0.88057568  0.59711728  0.15095004     1.04100
O197        O  0.80799495  0.62819614  0.19667837    -0.78500
C198        C  0.70186512  0.49060301  0.16046909     1.02400
Fe199      Fe  0.80186070  0.53582722  0.67321215     1.65800
Fe200      Fe  0.74594015  0.53876613  0.57835881     1.73200
Fe201      Fe  0.82259349  0.62435479  0.62275817     1.54400
O202        O  0.81123128  0.62895584  0.69565880    -0.82200
O203        O  0.77810431  0.57533452  0.52149963    -0.80500
O204        O  0.81307126  0.57656110  0.72728591    -0.84700
O205        O  0.86307082  0.56435731  0.65708168    -0.79600
O206        O  0.77566975  0.63269647  0.60361405    -0.81300
O207        O  0.76606529  0.50017467  0.55836318    -0.84100
C208        C  0.88692862  0.60162233  0.65268051     0.96700
C209        C  0.81334879  0.60937271  0.73171925     1.04100
O210        O  0.79009133  0.56618208  0.62481966    -1.13100
O211        O  0.70773709  0.49863702  0.62853914    -0.75500
O212        O  0.74216245  0.50411328  0.69548341    -0.79000
O213        O  0.87479182  0.62575555  0.64210940    -0.79700
C214        C  0.70933969  0.48965064  0.67222566     0.95600
O215        O  0.79256013  0.49126656  0.62568758    -0.77600
O216        O  0.72072881  0.57429689  0.59286703    -0.82800
C217        C  0.81309372  0.60453939  0.51500734     0.98200
C218        C  0.73842002  0.61198146  0.59566014     1.04100
O219        O  0.83643247  0.62373786  0.54975202    -0.78500
C220        C  0.78056891  0.48226805  0.58252619     1.02400
Fe221      Fe  0.45313213  0.20170353  0.24438440     1.65800
Fe222      Fe  0.45152386  0.26295477  0.33083887     1.73200
Fe223      Fe  0.36448445  0.18796436  0.28733763     1.54400
O224        O  0.36029969  0.18011445  0.21237188    -0.82200
O225        O  0.42247008  0.22895333  0.38959606    -0.80500
O226        O  0.42236970  0.20239962  0.18500044    -0.84700
O227        O  0.41359104  0.14032204  0.25344956    -0.79600
O228        O  0.36162021  0.23866430  0.27632868    -0.81300
O229        O  0.49786148  0.25127182  0.34445401    -0.84100
C230        C  0.38096101  0.11927715  0.27656357     0.96700
C231        C  0.38540361  0.18912240  0.17806937     1.04100
O232        O  0.42305797  0.21744962  0.28742826    -1.13100
O233        O  0.48342996  0.30070623  0.27526242    -0.75500
O234        O  0.49585872  0.26099278  0.22886881    -0.79000
O235        O  0.36253115  0.13454332  0.29763510    -0.79700
C236        C  0.50230359  0.29547884  0.24114228     0.95600
O237        O  0.48751063  0.19950219  0.29934583    -0.77600
O238        O  0.40913736  0.28163914  0.32504720    -0.82800
C239        C  0.38518336  0.20775084  0.39678216     0.98200
C240        C  0.37745139  0.27056952  0.30041122     1.04100
O241        O  0.35992594  0.19244255  0.36256982    -0.78500
C242        C  0.50636421  0.22476959  0.33194339     1.02400
Fe243      Fe  0.45824106  0.21104810  0.73544828     1.65800
Fe244      Fe  0.45074920  0.25843486  0.83501164     1.73200
Fe245      Fe  0.36747987  0.17870738  0.78819296     1.54400
O246        O  0.36159791  0.17590976  0.71277557    -0.82200
O247        O  0.42263393  0.21987986  0.89086433    -0.80500
O248        O  0.42273658  0.21317341  0.68173980    -0.84700
O249        O  0.42638886  0.14900650  0.73593134    -0.79600
O250        O  0.35415083  0.22409498  0.79004204    -0.81300
O251        O  0.49793259  0.24732527  0.84555664    -0.84100
C252        C  0.39833672  0.12301185  0.76196319     0.96700
C253        C  0.38512781  0.19231313  0.67712097     1.04100
O254        O  0.42550819  0.21648035  0.78610809    -1.13100
O255        O  0.48397500  0.30319104  0.78616420    -0.75500
O256        O  0.49537905  0.27170905  0.72660077    -0.79000
O257        O  0.37660432  0.13091077  0.78875906    -0.79700
C258        C  0.50179725  0.30334807  0.74770353     0.95600
O259        O  0.49673335  0.20871363  0.78512165    -0.77600
O260        O  0.40528192  0.27306106  0.83028307    -0.82800
C261        C  0.38829202  0.19002890  0.89703325     0.98200
C262        C  0.37045403  0.25754814  0.81146670     1.04100
O263        O  0.36352530  0.17366061  0.86300087    -0.78500
C264        C  0.51064062  0.22632106  0.82492282     1.02400
C265        C  0.37185445  0.20536074  0.44699530    -0.05800
C266        C  0.37838531  0.24092605  0.46831905    -0.05700
C267        C  0.37727364  0.24411164  0.51828311    -0.23900
C268        C  0.36979931  0.21170257  0.54790165     0.18400
C269        C  0.36021098  0.17472401  0.52676662     0.15600
C270        C  0.36128059  0.17171708  0.47612074    -0.18900
C271        C  0.35255010  0.14235658  0.55684599    -0.20700
C272        C  0.35700168  0.14736625  0.60692353    -0.13300
C273        C  0.36933528  0.18474930  0.62761057     0.03400
C274        C  0.37458589  0.21654841  0.59811327    -0.25400
H275        H  0.38688405  0.26718361  0.44623033     0.08500
H276        H  0.38434287  0.27250880  0.53378188     0.12100
H277        H  0.35687456  0.14441922  0.45978603     0.12000
H278        H  0.34503655  0.11376965  0.54154921     0.11800
H279        H  0.35355511  0.12273112  0.62923441     0.12300
H280        H  0.38469076  0.24554863  0.61397170     0.14300
C281        C  0.37200263  0.18340749  0.12759415    -0.05800
C282        C  0.35086097  0.20138901  0.10903669    -0.05700
C283        C  0.34517233  0.20202453  0.05916664    -0.23900
C284        C  0.36043668  0.18452598  0.02746257     0.18400
C285        C  0.37957034  0.16422289  0.04642171     0.15600
C286        C  0.38517494  0.16382666  0.09628635    -0.18900
C287        C  0.39518078  0.14695894  0.01505587    -0.20700
C288        C  0.39464727  0.15240940  0.96531118    -0.13300
C289        C  0.37784701  0.17448137  0.94633219     0.03400
C290        C  0.35945534  0.18927832  0.97726730    -0.25400
H291        H  0.34079128  0.21681646  0.13279890     0.08500
H292        H  0.33035163  0.21762747  0.04527835     0.12100
H293        H  0.40150759  0.14988145  0.11071150     0.12000
H294        H  0.40980408  0.13120183  0.02907693     0.11800
H295        H  0.40951801  0.14148919  0.94176204     0.12300
H296        H  0.34726470  0.20708451  0.96251022     0.14300
C297        C  0.67114020  0.46023727  0.69566550    -0.05800
C298        C  0.66868528  0.45331153  0.74571596    -0.05700
C299        C  0.63310893  0.42364245  0.76670634    -0.23900
C300        C  0.59963159  0.39981898  0.73793674     0.18400
C301        C  0.60156331  0.40697531  0.68768555     0.15600
C302        C  0.63691806  0.43745854  0.66715866    -0.18900
C303        C  0.56879289  0.38225963  0.65848170    -0.20700
C304        C  0.53526893  0.34934326  0.67838625    -0.13300
C305        C  0.53336924  0.34157755  0.72808710     0.03400
C306        C  0.56505399  0.36766281  0.75798118    -0.25400
H307        H  0.69439440  0.47051477  0.76853523     0.08500
H308        H  0.63218549  0.41851488  0.80532832     0.12100
H309        H  0.63824091  0.44220847  0.62838869     0.12000
H310        H  0.56983612  0.38732872  0.61979926     0.11800
H311        H  0.51124537  0.32933509  0.65492453     0.12300
H312        H  0.56398795  0.36119930  0.79630352     0.14300
C313        C  0.81569640  0.62386890  0.78156865    -0.05800
C314        C  0.78577268  0.63100460  0.79949581    -0.05700
C315        C  0.78247486  0.63525043  0.84919839    -0.23900
C316        C  0.80929191  0.63277092  0.88164404     0.18400
C317        C  0.84148460  0.62882557  0.86361319     0.15600
C318        C  0.84431097  0.62415001  0.81367539    -0.18900
C319        C  0.86865211  0.62701603  0.89614981    -0.20700
C320        C  0.86213872  0.62584715  0.94610857    -0.13300
C321        C  0.82826762  0.62625051  0.96416508     0.03400
C322        C  0.80290366  0.63137818  0.93174447    -0.25400
H323        H  0.76335211  0.63058309  0.77543524     0.08500
H324        H  0.75780255  0.63861579  0.86246261     0.12100
H325        H  0.86755259  0.61866068  0.79994323     0.12000
H326        H  0.89377667  0.62441152  0.88292026     0.11800
H327        H  0.88178695  0.62154892  0.97036877     0.12300
H328        H  0.77662064  0.63166635  0.94551300     0.14300
C329        C  0.82611889  0.61476426  0.46434358    -0.05800
C330        C  0.85163580  0.60247202  0.44430361    -0.05700
C331        C  0.85588575  0.60198323  0.39421070    -0.23900
C332        C  0.83457346  0.61376627  0.36338258     0.18400
C333        C  0.81041703  0.62821698  0.38310614     0.15600
C334        C  0.80616741  0.62841363  0.43360825    -0.18900
C335        C  0.78930546  0.64010363  0.35186437    -0.20700
C336        C  0.79039555  0.63561115  0.30167773    -0.13300
C337        C  0.81233966  0.61888387  0.28217530     0.03400
C338        C  0.83536352  0.60925823  0.31326169    -0.25400
H339        H  0.86632050  0.59086507  0.46732672     0.08500
H340        H  0.87447830  0.59079513  0.37956801     0.12100
H341        H  0.78573519  0.63710004  0.44896059     0.12000
H342        H  0.77082856  0.65149972  0.36633236     0.11800
H343        H  0.77239686  0.64310177  0.27845383     0.12300
H344        H  0.85269005  0.59664490  0.29844611     0.14300
C345        C  0.66281538  0.46029326  0.18066435    -0.05800
C346        C  0.65140340  0.46359732  0.22775509    -0.05700
C347        C  0.61527259  0.43357762  0.24720654    -0.23900
C348        C  0.59070894  0.39913740  0.22055226     0.18400
C349        C  0.60172110  0.39587125  0.17284144     0.15600
C350        C  0.63713203  0.42690242  0.15288994    -0.18900
C351        C  0.57814794  0.36083600  0.14682392    -0.20700
C352        C  0.54516170  0.32849241  0.16857814    -0.13300
C353        C  0.53434468  0.33107037  0.21626212     0.03400
C354        C  0.55652609  0.36707665  0.24146669    -0.25400
H355        H  0.67052146  0.48931071  0.24942992     0.08500
H356        H  0.60724441  0.43665872  0.28386231     0.12100
H357        H  0.64586235  0.42409290  0.11646195     0.12000
H358        H  0.58617020  0.35784881  0.11013206     0.11800
H359        H  0.52841470  0.30122223  0.14841752     0.12300
H360        H  0.54865128  0.36928916  0.27852747     0.14300
C361        C  0.77803025  0.45172880  0.05046303    -0.05800
C362        C  0.78140892  0.44999110  0.00017630    -0.05700
C363        C  0.78433223  0.41863815  0.97928351    -0.23900
C364        C  0.78334185  0.38820756  0.00817274     0.18400
C365        C  0.77968864  0.38955571  0.05873877     0.15600
C366        C  0.77741442  0.42136862  0.07945615    -0.18900
C367        C  0.77773653  0.35873942  0.08763466    -0.20700
C368        C  0.77858716  0.32638325  0.06664810    -0.13300
C369        C  0.78205886  0.32455750  0.01635119     0.03400
C370        C  0.78501760  0.35600998  0.98742838    -0.25400
H371        H  0.78212057  0.47301065  0.97713044     0.08500
H372        H  0.78701160  0.41800568  0.94032937     0.12100
H373        H  0.77443954  0.42206423  0.11836193     0.12000
H374        H  0.77483890  0.35930648  0.12655155     0.11800
H375        H  0.77615479  0.30260182  0.08970529     0.12300
H376        H  0.78715648  0.35477455  0.94845328     0.14300
C377        C  0.67068661  0.21705532  0.88009252    -0.05800
C378        C  0.66412610  0.21231606  0.83017239    -0.05700
C379        C  0.63013765  0.21093972  0.80987737    -0.23900
C380        C  0.60271424  0.21528313  0.83903235     0.18400
C381        C  0.60911628  0.22020922  0.88930679     0.15600
C382        C  0.64266496  0.22044806  0.90953982    -0.18900
C383        C  0.58240434  0.22579170  0.91830537    -0.20700
C384        C  0.55018168  0.22753871  0.89746891    -0.13300
C385        C  0.54363174  0.22282348  0.84746968     0.03400
C386        C  0.56963887  0.21590563  0.81860894    -0.25400
H387        H  0.68515499  0.20942653  0.80693148     0.08500
H388        H  0.62567111  0.20719265  0.77121789     0.12100
H389        H  0.64761547  0.22451879  0.94811826     0.12000
H390        H  0.58689593  0.22960890  0.95694142     0.11800
H391        H  0.53035708  0.23257019  0.92043297     0.12300
H392        H  0.56501278  0.21249484  0.77991914     0.14300
C393        C  0.79978730  0.17448971  0.79141814    -0.05800
C394        C  0.76449194  0.14097143  0.77587232    -0.05700
C395        C  0.75750562  0.13242850  0.72662044    -0.23900
C396        C  0.78597451  0.15700224  0.69216803     0.18400
C397        C  0.82304217  0.18890043  0.70768180     0.15600
C398        C  0.82950642  0.19771588  0.75723546    -0.18900
C399        C  0.85190301  0.21274042  0.67312545    -0.20700
C400        C  0.84306029  0.20693847  0.62374665    -0.13300
C401        C  0.80503560  0.17756393  0.60823538     0.03400
C402        C  0.77712504  0.15177971  0.64259852    -0.25400
H403        H  0.74115922  0.12298971  0.80160466     0.08500
H404        H  0.72907948  0.10758624  0.71536252     0.12100
H405        H  0.85683819  0.22372776  0.76909950     0.12000
H406        H  0.88072011  0.23704135  0.68434102     0.11800
H407        H  0.86485847  0.22717603  0.59789678     0.12300
H408        H  0.74772435  0.12887664  0.63078610     0.14300
C409        C  0.81027708  0.18697818  0.10880217    -0.05800
C410        C  0.84553120  0.21849124  0.12783503    -0.05700
C411        C  0.85095326  0.22288049  0.17791867    -0.23900
C412        C  0.82139375  0.19556624  0.20957738     0.18400
C413        C  0.78725704  0.16210111  0.19056861     0.15600
C414        C  0.78185661  0.15820176  0.14034379    -0.18900
C415        C  0.75810185  0.13430059  0.22216144    -0.20700
C416        C  0.76159720  0.14062265  0.27207205    -0.13300
C417        C  0.79398914  0.17511551  0.29107238     0.03400
C418        C  0.82430216  0.20204484  0.25968034    -0.25400
H419        H  0.86750679  0.24112097  0.10413583     0.08500
H420        H  0.87752231  0.24854569  0.19189969     0.12100
H421        H  0.75452203  0.13379606  0.12571858     0.12000
H422        H  0.73186983  0.10831659  0.20814259     0.11800
H423        H  0.73788225  0.11975107  0.29559475     0.12300
H424        H  0.84949077  0.22873876  0.27422630     0.14300
C425        C  0.78028115  0.31878763  0.52605154    -0.05800
C426        C  0.77654222  0.32034265  0.57630350    -0.05700
C427        C  0.77762704  0.35360616  0.59753220    -0.23900
C428        C  0.78159843  0.38539088  0.56880137     0.18400
C429        C  0.78532272  0.38403083  0.51824367     0.15600
C430        C  0.78526992  0.35112868  0.49741449    -0.18900
C431        C  0.78794534  0.41509849  0.48925968    -0.20700
C432        C  0.78634440  0.44709897  0.51005216    -0.13300
C433        C  0.78297795  0.44892065  0.56029516     0.03400
C434        C  0.78102194  0.41809697  0.58948942    -0.25400
H435        H  0.77251511  0.29577048  0.59903934     0.08500
H436        H  0.77455468  0.35412290  0.63642393     0.12100
H437        H  0.78754456  0.35007961  0.45844614     0.12000
H438        H  0.79064830  0.41436253  0.45032909     0.11800
H439        H  0.78800162  0.47054822  0.48697843     0.12300
H440        H  0.77788887  0.41900799  0.62836101     0.14300
C441        C  0.66864432  0.22051901  0.38621854    -0.05800
C442        C  0.66401857  0.21950093  0.33592290    -0.05700
C443        C  0.63086037  0.21964450  0.31549758    -0.23900
C444        C  0.60227436  0.22160410  0.34500686     0.18400
C445        C  0.60749514  0.22427918  0.39559338     0.15600
C446        C  0.64036899  0.22324589  0.41583318    -0.18900
C447        C  0.57975969  0.22796909  0.42492199    -0.20700
C448        C  0.54685136  0.22856029  0.40432812    -0.13300
C449        C  0.54078249  0.22439055  0.35431535     0.03400
C450        C  0.56860456  0.22102804  0.32483478    -0.25400
H451        H  0.68561097  0.21776176  0.31249776     0.08500
H452        H  0.62751126  0.21811369  0.27657581     0.12100
H453        H  0.64418957  0.22498769  0.45473484     0.12000
H454        H  0.58357648  0.23048565  0.46378297     0.11800
H455        H  0.52578620  0.23153890  0.42736382     0.12300
H456        H  0.56435854  0.21870480  0.28601060     0.14300
C457        C  0.71641415  0.63390509  0.58764294    -0.05800
C458        C  0.73833612  0.67361539  0.57143937    -0.05700
C459        C  0.71991489  0.69632249  0.56456949    -0.23900
C460        C  0.67911276  0.68007137  0.57417074     0.18400
C461        C  0.65610403  0.64004359  0.58971265     0.15600
C462        C  0.67489010  0.61683078  0.59584993    -0.18900
C463        C  0.61514171  0.62465086  0.59960456    -0.20700
C464        C  0.59763281  0.64899710  0.59529138    -0.13300
C465        C  0.62082700  0.68906714  0.58059461     0.03400
C466        C  0.66140661  0.70385082  0.56933675    -0.25400
H467        H  0.77011752  0.68735004  0.56392470     0.08500
H468        H  0.73783323  0.72694499  0.55238481     0.12100
H469        H  0.65763748  0.58617962  0.60818950     0.12000
H470        H  0.59679260  0.59399541  0.61151805     0.11800
H471        H  0.56629702  0.63674624  0.60413240     0.12300
H472        H  0.67990994  0.73456999  0.55765804     0.14300
C473        C  0.68425770  0.06455260  0.48202377    -0.05800
C474        C  0.64308200  0.04466412  0.47143095    -0.05700
C475        C  0.61957909  0.00322462  0.47902280    -0.23900
C476        C  0.63678774  0.98132915  0.49818698     0.18400
C477        C  0.67784352  0.00181682  0.51039643     0.15600
C478        C  0.70103743  0.04273874  0.50199261    -0.18900
C479        C  0.69557474  0.98119132  0.53053641    -0.20700
C480        C  0.67339314  0.94024840  0.53717911    -0.13300
C481        C  0.63284245  0.91856872  0.52351753     0.03400
C482        C  0.61431139  0.93951017  0.50479256    -0.25400
H483        H  0.62936833  0.06093938  0.45648449     0.08500
H484        H  0.58808619  0.98831854  0.46969541     0.12100
H485        H  0.73254894  0.05783344  0.51150324     0.12000
H486        H  0.72694560  0.99669183  0.54056427     0.11800
H487        H  0.68859268  0.92543563  0.55223680     0.12300
H488        H  0.58309100  0.92335807  0.49424224     0.14300
C489        C  0.62304779  0.69622813  0.07683879    -0.05800
C490        C  0.59946535  0.65626951  0.09166704    -0.05700
C491        C  0.61677663  0.63200706  0.09790801    -0.23900
C492        C  0.65791474  0.64739573  0.08967367     0.18400
C493        C  0.68155891  0.68758284  0.07490757     0.15600
C494        C  0.66404955  0.71135030  0.06829677    -0.18900
C495        C  0.72260585  0.70376548  0.06730537    -0.20700
C496        C  0.74041405  0.68050825  0.07427355    -0.13300
C497        C  0.71753903  0.64037154  0.08864591     0.03400
C498        C  0.67606576  0.62373270  0.09605466    -0.25400
H499        H  0.56785568  0.64397571  0.09907952     0.08500
H500        H  0.59808745  0.60136263  0.10956203     0.12100
H501        H  0.68284653  0.74214852  0.05706373     0.12000
H502        H  0.74108591  0.73458812  0.05601210     0.11800
H503        H  0.77227748  0.69394170  0.06776002     0.12300
H504        H  0.65823268  0.59285241  0.10731513     0.14300
C505        C  0.63489905  0.92694031  0.03176222    -0.05800
C506        C  0.67183936  0.94858415  0.05557235    -0.05700
C507        C  0.69524724  0.98960865  0.04931446    -0.23900
C508        C  0.68233094  0.01000495  0.01902796     0.18400
C509        C  0.64438976  0.98922511  0.99661750     0.15600
C510        C  0.62068402  0.94764606  0.00332577    -0.18900
C511        C  0.63157813  0.01041416  0.96702390    -0.20700
C512        C  0.65633535  0.05152291  0.95932825    -0.13300
C513        C  0.69458012  0.07176432  0.98022786     0.03400
C514        C  0.70715567  0.05079221  0.01028144    -0.25400
H515        H  0.68329003  0.93349482  0.07804760     0.08500
H516        H  0.72404001  0.00525943  0.06726048     0.12100
H517        H  0.59232144  0.93128175  0.98464256     0.12000
H518        H  0.60254833  0.99517402  0.94964305     0.11800
H519        H  0.64602090  0.06734065  0.93636085     0.12300
H520        H  0.73637328  0.06647291  0.02734017     0.14300
C521        C  0.62784802  0.80998616  0.89307982    -0.05800
C522        C  0.64079536  0.78397042  0.87657621    -0.05700
C523        C  0.64468771  0.77967175  0.82691894    -0.23900
C524        C  0.63599166  0.80160361  0.79312460     0.18400
C525        C  0.62611110  0.83015960  0.80968616     0.15600
C526        C  0.62212882  0.83413302  0.85939318    -0.18900
C527        C  0.61789487  0.85254791  0.77621651    -0.20700
C528        C  0.61680865  0.84486249  0.72683299    -0.13300
C529        C  0.62383145  0.81470690  0.71016534     0.03400
C530        C  0.63452468  0.79383850  0.74330913    -0.25400
H531        H  0.64543964  0.76515417  0.90183626     0.08500
H532        H  0.65277268  0.75798454  0.81492334     0.12100
H533        H  0.61261207  0.85468530  0.87182025     0.12000
H534        H  0.61043630  0.87466543  0.78835316     0.11800
H535        H  0.60782504  0.86065229  0.70187176     0.12300
H536        H  0.63941310  0.77013955  0.73055608     0.14300
C537        C  0.62541958  0.81129145  0.21105930    -0.05800
C538        C  0.63101555  0.84729814  0.22989817    -0.05700
C539        C  0.63415994  0.85364114  0.27980827    -0.23900
C540        C  0.63230144  0.82428853  0.31152954     0.18400
C541        C  0.63036833  0.78950540  0.29261839     0.15600
C542        C  0.62660260  0.78310051  0.24245976    -0.18900
C543        C  0.62960187  0.76067668  0.32445760    -0.20700
C544        C  0.62741131  0.76467898  0.37447797    -0.13300
C545        C  0.62563013  0.79739321  0.39324796     0.03400
C546        C  0.62965949  0.82783876  0.36167534    -0.25400
H547        H  0.63015607  0.86927907  0.20631654     0.08500
H548        H  0.63618090  0.88075318  0.29372908     0.12100
H549        H  0.62256547  0.75531445  0.22797755     0.12000
H550        H  0.62867482  0.73405363  0.31058642     0.11800
H551        H  0.62416816  0.74089213  0.39817875     0.12300
H552        H  0.62841370  0.85326621  0.37607802     0.14300
C553        C  0.07320215  0.38262150  0.90085303    -0.05800
C554        C  0.05343356  0.39882820  0.87436935    -0.05700
C555        C  0.01144344  0.38069517  0.87580456    -0.23900
C556        C  0.98868150  0.34650310  0.90432928     0.18400
C557        C  0.00883617  0.33132351  0.93258393     0.15600
C558        C  0.05066817  0.34927525  0.93042472    -0.18900
C559        C  0.98682216  0.29770108  0.96165289    -0.20700
C560        C  0.94514585  0.27792559  0.96116481    -0.13300
C561        C  0.92428964  0.29134624  0.93183997     0.03400
C562        C  0.94631941  0.32648177  0.90433099    -0.25400
H563        H  0.07033433  0.42458064  0.85139496     0.08500
H564        H  0.99673917  0.39303566  0.85396926     0.12100
H565        H  0.06584771  0.33693727  0.95147543     0.12000
H566        H  0.00187348  0.28602122  0.98399745     0.11800
H567        H  0.92905846  0.25143444  0.98330601     0.12300
H568        H  0.93063639  0.33720905  0.88159331     0.14300
C569        C  0.29465023  0.37471313  0.84276955    -0.05800
C570        C  0.33668305  0.39763925  0.84287027    -0.05700
C571        C  0.36021626  0.37949168  0.83711792    -0.23900
C572        C  0.34212564  0.33813437  0.83046279     0.18400
C573        C  0.29992147  0.31497107  0.82976501     0.15600
C574        C  0.27657587  0.33322677  0.83630133    -0.18900
C575        C  0.28152719  0.27381837  0.82218582    -0.20700
C576        C  0.30474788  0.25571330  0.81525998    -0.13300
C577        C  0.34680292  0.27816207  0.81638184     0.03400
C578        C  0.36539697  0.31952983  0.82431083    -0.25400
H579        H  0.35140706  0.42961697  0.84754127     0.08500
H580        H  0.39251207  0.39781802  0.83755883     0.12100
H581        H  0.24427389  0.31509446  0.83549497     0.12000
H582        H  0.24925158  0.25566742  0.82156847     0.11800
H583        H  0.28959427  0.22374636  0.80993259     0.12300
H584        H  0.39774904  0.33715536  0.82528539     0.14300
C585        C  0.45588112  0.67724404  0.97857799    -0.05800
C586        C  0.45216295  0.67569952  0.92803839    -0.05700
C587        C  0.42006189  0.64302322  0.90564232    -0.23900
C588        C  0.39073417  0.61151152  0.93336281     0.18400
C589        C  0.39397681  0.61297503  0.98416847     0.15600
C590        C  0.42656943  0.64550456  0.00631073    -0.18900
C591        C  0.36425585  0.58212303  0.01210038    -0.20700
C592        C  0.33135909  0.55022793  0.99005889    -0.13300
C593        C  0.32773866  0.54815359  0.93955698     0.03400
C594        C  0.35789449  0.57889944  0.91134883    -0.25400
H595        H  0.47415646  0.69970118  0.90580056     0.08500
H596        H  0.41799527  0.64257036  0.86661673     0.12100
H597        H  0.42861367  0.64643293  0.04536626     0.12000
H598        H  0.36620409  0.58287459  0.05114963     0.11800
H599        H  0.30864024  0.52712270  0.01261203     0.12300
H600        H  0.35524388  0.57804671  0.87235618     0.14300
C601        C  0.06668391  0.37429528  0.40070855    -0.05800
C602        C  0.04815964  0.39765808  0.40588077    -0.05700
C603        C  0.00650779  0.37965352  0.41252116    -0.23900
C604        C  0.98263292  0.33793495  0.41464723     0.18400
C605        C  0.00121664  0.31445715  0.40981586     0.15600
C606        C  0.04265813  0.33259398  0.40254575    -0.18900
C607        C  0.97821354  0.27299049  0.41262415    -0.20700
C608        C  0.93704582  0.25466574  0.41967779    -0.13300
C609        C  0.91750766  0.27718675  0.42381804     0.03400
C610        C  0.94068455  0.31914535  0.42142736    -0.25400
H611        H  0.06588073  0.42986701  0.40502772     0.08500
H612        H  0.99304223  0.39834038  0.41632062     0.12100
H613        H  0.05627846  0.31398032  0.39925540     0.12000
H614        H  0.99206188  0.25460638  0.40919223     0.11800
H615        H  0.92039500  0.22241212  0.42113364     0.12300
H616        H  0.92623146  0.33699863  0.42458166     0.14300
C617        C  0.35636748  0.29385780  0.30159293    -0.05800
C618        C  0.32067938  0.28020758  0.27519129    -0.05700
C619        C  0.29698836  0.29779861  0.28058447    -0.23900
C620        C  0.30857123  0.32970443  0.31210647     0.18400
C621        C  0.34519232  0.34514198  0.33740219     0.15600
C622        C  0.36887951  0.32696242  0.33214535    -0.18900
C623        C  0.35690182  0.37801667  0.36788985    -0.20700
C624        C  0.33235719  0.39506563  0.37343843    -0.13300
C625        C  0.29536768  0.37869486  0.34954570     0.03400
C626        C  0.28382328  0.34617828  0.31886963    -0.25400
H627        H  0.31023348  0.25494263  0.25127613     0.08500
H628        H  0.26917794  0.28597233  0.26057986     0.12100
H629        H  0.39630146  0.33784208  0.35275765     0.12000
H630        H  0.38498050  0.39050629  0.38742705     0.11800
H631        H  0.34177782  0.42040234  0.39696994     0.12300
H632        H  0.25560064  0.33400226  0.29958212     0.14300
C633        C  0.18414745  0.37474748  0.53259898    -0.05800
C634        C  0.21525976  0.36922767  0.55023044    -0.05700
C635        C  0.22047233  0.36737510  0.60007891    -0.23900
C636        C  0.19441977  0.37068981  0.63290674     0.18400
C637        C  0.16104792  0.37282588  0.61530980     0.15600
C638        C  0.15624660  0.37499194  0.56530748    -0.18900
C639        C  0.13452082  0.37535141  0.64806184    -0.20700
C640        C  0.14243623  0.37844571  0.69767311    -0.13300
C641        C  0.17718711  0.37953165  0.71516947     0.03400
C642        C  0.20244157  0.37438754  0.68274073    -0.25400
H643        H  0.23720731  0.36932323  0.52567630     0.08500
H644        H  0.24598592  0.36528856  0.61296726     0.12100
H645        H  0.13212001  0.37923195  0.55184236     0.12000
H646        H  0.10860306  0.37668174  0.63516015     0.11800
H647        H  0.12284625  0.38266185  0.72203819     0.12300
H648        H  0.22933940  0.37519048  0.69614691     0.14300
C649        C  0.18334985  0.38462577  0.21472364    -0.05800
C650        C  0.14683446  0.37883987  0.19641371    -0.05700
C651        C  0.13980348  0.37589150  0.14657621    -0.23900
C652        C  0.16892625  0.37799057  0.11423509     0.18400
C653        C  0.20466885  0.38105527  0.13242933     0.15600
C654        C  0.21186275  0.38484506  0.18252305    -0.18900
C655        C  0.23333680  0.38214676  0.10000677    -0.20700
C656        C  0.22774205  0.38271262  0.05003301    -0.13300
C657        C  0.19369313  0.38266843  0.03175811     0.03400
C658        C  0.16384739  0.37916255  0.06406779    -0.25400
H659        H  0.12465953  0.37885210  0.22047733     0.08500
H660        H  0.11208993  0.37323410  0.13324029     0.12100
H661        H  0.24009677  0.38916777  0.19641434     0.12000
H662        H  0.26075433  0.38414606  0.11328703     0.11800
H663        H  0.25128672  0.38594492  0.02577538     0.12300
H664        H  0.13755977  0.37930272  0.05012418     0.14300
C665        C  0.45451767  0.66612687  0.48809462    -0.05800
C666        C  0.45692462  0.65526215  0.44057334    -0.05700
C667        C  0.42488365  0.62139303  0.42026733    -0.23900
C668        C  0.38956453  0.59854560  0.44691588     0.18400
C669        C  0.38695428  0.60914362  0.49485144     0.15600
C670        C  0.41968300  0.64249584  0.51543165    -0.18900
C671        C  0.35128883  0.58686086  0.52103839    -0.20700
C672        C  0.31809253  0.55490252  0.49938688    -0.13300
C673        C  0.32011220  0.54438798  0.45145536     0.03400
C674        C  0.35641870  0.56602094  0.42577130    -0.25400
H675        H  0.48367384  0.67292618  0.41917839     0.08500
H676        H  0.42737002  0.61360092  0.38354003     0.12100
H677        H  0.41755417  0.65089354  0.55200642     0.12000
H678        H  0.34879937  0.59465450  0.55776216     0.11800
H679        H  0.29061008  0.53885059  0.52000598     0.12300
H680        H  0.35861340  0.55843982  0.38883218     0.14300
C681        C  0.38909181  0.08147395  0.76023481    -0.05800
C682        C  0.38642618  0.06119958  0.80339264    -0.05700
C683        C  0.36969095  0.01989033  0.80375762    -0.23900
C684        C  0.35385578  0.99822795  0.76127863     0.18400
C685        C  0.35766661  0.01866518  0.71728124     0.15600
C686        C  0.37639790  0.06039327  0.71683911    -0.18900
C687        C  0.33981594  0.99691061  0.67535565    -0.20700
C688        C  0.31599546  0.95550624  0.67778866    -0.13300
C689        C  0.31107943  0.93525568  0.72166082     0.03400
C690        C  0.33153943  0.95653819  0.76279656    -0.25400
H691        H  0.39594372  0.07727676  0.83709788     0.08500
H692        H  0.36691008  0.00471258  0.83777708     0.12100
H693        H  0.37777995  0.07611057  0.68371389     0.12000
H694        H  0.34238177  0.01202442  0.64140331     0.11800
H695        H  0.30044160  0.93929868  0.64568915     0.12300
H696        H  0.32727722  0.94089458  0.79684597     0.14300
C697        C  0.07602441  0.72045626  0.69861002    -0.05800
C698        C  0.05249471  0.73616409  0.71635902    -0.05700
C699        C  0.01085176  0.71476971  0.71281802    -0.23900
C700        C  0.99168733  0.67705189  0.69147244     0.18400
C701        C  0.01442914  0.65985317  0.67523250     0.15600
C702        C  0.05657809  0.68167494  0.67889042    -0.18900
C703        C  0.99453520  0.62160544  0.65453865    -0.20700
C704        C  0.95269725  0.60139903  0.64848833    -0.13300
C705        C  0.93036425  0.61941258  0.66249570     0.03400
C706        C  0.95011569  0.65686381  0.68500385    -0.25400
H707        H  0.06631202  0.76569749  0.73192009     0.08500
H708        H  0.99370627  0.72812310  0.72577215     0.12100
H709        H  0.07412111  0.66894797  0.66527241     0.12000
H710        H  0.01136241  0.60771596  0.64220708     0.11800
H711        H  0.93806210  0.57247798  0.63136252     0.12300
H712        H  0.93305327  0.67067620  0.69687317     0.14300
C713        C  0.21475103  0.67949591  0.77917045    -0.05800
C714        C  0.22188284  0.67750589  0.82844491    -0.05700
C715        C  0.22298802  0.64451332  0.84733800    -0.23900
C716        C  0.21796894  0.61347628  0.81690075     0.18400
C717        C  0.21099834  0.61519844  0.76719511     0.15600
C718        C  0.20872714  0.64789414  0.74875539    -0.18900
C719        C  0.20745171  0.58470257  0.73662943    -0.20700
C720        C  0.21084551  0.55275760  0.75532342    -0.13300
C721        C  0.21704579  0.55054519  0.80487023     0.03400
C722        C  0.22051800  0.58108089  0.83540420    -0.25400
H723        H  0.22695324  0.70168868  0.85232377     0.08500
H724        H  0.22857530  0.64364324  0.88545706     0.12100
H725        H  0.20412137  0.64960656  0.71048302     0.12000
H726        H  0.20239564  0.58573129  0.69837677     0.11800
H727        H  0.20806774  0.52954889  0.73121688     0.12300
H728        H  0.22595250  0.58002797  0.87359062     0.14300
C729        C  0.33016947  0.78940799  0.64723191    -0.05800
C730        C  0.32850532  0.77745970  0.59911104    -0.05700
C731        C  0.36050782  0.77510545  0.57880033    -0.23900
C732        C  0.39437766  0.78384007  0.60655237     0.18400
C733        C  0.39663567  0.79631768  0.65482480     0.15600
C734        C  0.36486496  0.79973182  0.67453274    -0.18900
C735        C  0.42999682  0.80378936  0.68300164    -0.20700
C736        C  0.46040952  0.79801508  0.66389264    -0.13300
C737        C  0.45840935  0.78573465  0.61592595     0.03400
C738        C  0.42553586  0.77926368  0.58725489    -0.25400
H739        H  0.30222498  0.76945624  0.57734974     0.08500
H740        H  0.35831606  0.76544923  0.54171818     0.12100
H741        H  0.36640007  0.80861675  0.71188580     0.12000
H742        H  0.43218919  0.81334265  0.72013967     0.11800
H743        H  0.48561943  0.80342752  0.68637996     0.12300
H744        H  0.42360137  0.76940644  0.55027632     0.14300
C745        C  0.36189942  0.07506463  0.27751014    -0.05800
C746        C  0.32913759  0.05303871  0.30861954    -0.05700
C747        C  0.30668127  0.01169871  0.30567482    -0.23900
C748        C  0.31634535  0.99121522  0.27170674     0.18400
C749        C  0.35017749  0.01241589  0.24149562     0.15600
C750        C  0.37282028  0.05434101  0.24459903    -0.18900
C751        C  0.35989030  0.99117071  0.20816558    -0.20700
C752        C  0.33592801  0.94960545  0.20427808    -0.13300
C753        C  0.30144391  0.92894074  0.23296758     0.03400
C754        C  0.29219912  0.94992498  0.26688319    -0.25400
H755        H  0.32006420  0.06788922  0.33448861     0.08500
H756        H  0.28101678  0.99573720  0.32946904     0.12100
H757        H  0.39788551  0.07083107  0.22019581     0.12000
H758        H  0.38582838  0.00675935  0.18475865     0.11800
H759        H  0.34357482  0.93378556  0.17810963     0.12300
H760        H  0.26584645  0.93386581  0.28968708     0.14300
C761        C  0.07029422  0.70748626  0.19619446    -0.05800
C762        C  0.04754707  0.71894046  0.22479877    -0.05700
C763        C  0.00582726  0.69723318  0.22419198    -0.23900
C764        C  0.98579904  0.66388111  0.19451243     0.18400
C765        C  0.00799065  0.65114469  0.16638715     0.15600
C766        C  0.05023901  0.67290969  0.16775653    -0.18900
C767        C  0.98733286  0.61773447  0.13641721    -0.20700
C768        C  0.94534395  0.59809873  0.13308870    -0.13300
C769        C  0.92354223  0.61179014  0.15962735     0.03400
C770        C  0.94398240  0.64406849  0.19104840    -0.25400
H771        H  0.06212585  0.74513615  0.24725521     0.08500
H772        H  0.98913614  0.70723875  0.24615343     0.12100
H773        H  0.06745654  0.66390889  0.14520954     0.12000
H774        H  0.00376860  0.60746060  0.11444990     0.11800
H775        H  0.93012182  0.57358352  0.10827344     0.12300
H776        H  0.92716335  0.65476698  0.21166330     0.14300
C777        C  0.20238634  0.83630292  0.87299884    -0.05800
C778        C  0.23463449  0.86904399  0.89539627    -0.05700
C779        C  0.23543925  0.87369136  0.94548179    -0.23900
C780        C  0.20432077  0.84525717  0.97425948     0.18400
C781        C  0.17052325  0.81348297  0.95164254     0.15600
C782        C  0.16967105  0.80939679  0.90108395    -0.18900
C783        C  0.13970442  0.78464609  0.98025988    -0.20700
C784        C  0.14370861  0.78523184  0.03035625    -0.13300
C785        C  0.17825974  0.81508167  0.05304070     0.03400
C786        C  0.20776268  0.84609474  0.02501493    -0.25400
H787        H  0.26031269  0.88980647  0.87424470     0.08500
H788        H  0.26156718  0.89834590  0.96192660     0.12100
H789        H  0.14504424  0.78363357  0.88400895     0.12000
H790        H  0.11346211  0.76015336  0.96373525     0.11800
H791        H  0.12083472  0.76093203  0.05140527     0.12300
H792        H  0.23487789  0.86878603  0.04223836     0.14300
C793        C  0.20064398  0.82865216  0.55303350    -0.05800
C794        C  0.23769454  0.85801083  0.53474919    -0.05700
C795        C  0.24368879  0.86417926  0.48497051    -0.23900
C796        C  0.21266608  0.84081533  0.45282071     0.18400
C797        C  0.17453555  0.81277030  0.47107269     0.15600
C798        C  0.16880514  0.80681172  0.52119765    -0.18900
C799        C  0.14353077  0.78960833  0.43878082    -0.20700
C800        C  0.15073426  0.79267991  0.38897417    -0.13300
C801        C  0.18914172  0.81864369  0.37078162     0.03400
C802        C  0.21973320  0.84344081  0.40287249    -0.25400
H803        H  0.26270431  0.87450520  0.55890481     0.08500
H804        H  0.27303299  0.88588530  0.47159936     0.12100
H805        H  0.14039577  0.78357630  0.53533679     0.12000
H806        H  0.11406782  0.76807280  0.45213723     0.11800
H807        H  0.12691826  0.77316585  0.36489842     0.12300
H808        H  0.24945169  0.86366178  0.38902964     0.14300
C809        C  0.21194165  0.54782499  0.30995818    -0.05800
C810        C  0.21998654  0.55666499  0.26064819    -0.05700
C811        C  0.22043863  0.59009708  0.24078847    -0.23900
C812        C  0.21347048  0.61548447  0.27007808     0.18400
C813        C  0.20510781  0.60685137  0.31964351     0.15600
C814        C  0.20384071  0.57277255  0.33910995    -0.18900
C815        C  0.19930620  0.63306464  0.34908264    -0.20700
C816        C  0.20251570  0.66800084  0.32956758    -0.13300
C817        C  0.21059252  0.67647565  0.28026508     0.03400
C818        C  0.21563897  0.64987232  0.25072240    -0.25400
H819        H  0.22635873  0.53799823  0.23754375     0.08500
H820        H  0.22701789  0.59652561  0.20269346     0.12100
H821        H  0.19797582  0.56655408  0.37733295     0.12000
H822        H  0.19294934  0.62687215  0.38721342     0.11800
H823        H  0.19841175  0.68816454  0.35274861     0.12300
H824        H  0.22245158  0.65655481  0.21267868     0.14300
C825        C  0.32240282  0.77910251  0.14356728    -0.05800
C826        C  0.32882924  0.78165901  0.09355271    -0.05700
C827        C  0.36361455  0.78386726  0.07461755    -0.23900
C828        C  0.39219508  0.78296751  0.10542095     0.18400
C829        C  0.38545949  0.77920830  0.15567703     0.15600
C830        C  0.35077526  0.77746700  0.17439665    -0.18900
C831        C  0.41349215  0.77722583  0.18639803    -0.20700
C832        C  0.44795086  0.77884034  0.16737319    -0.13300
C833        C  0.45519489  0.78303845  0.11743982     0.03400
C834        C  0.42716959  0.78532102  0.08671229    -0.25400
H835        H  0.30738838  0.78279929  0.06917713     0.08500
H836        H  0.36821714  0.78639205  0.03593467     0.12100
H837        H  0.34583889  0.77473850  0.21303789     0.12000
H838        H  0.40861187  0.77410741  0.22502032     0.11800
H839        H  0.46884961  0.77666872  0.19170506     0.12300
H840        H  0.43194972  0.78778940  0.04804279     0.14300
loop_ 
_geom_bond_atom_site_label_1 
_geom_bond_atom_site_label_2 
_geom_bond_distance 
_geom_bond_site_symmetry_2 
_ccdc_geom_bond_type 
Fe1          O17   2.049       .  S
Fe1           O7   2.079       .  S
Fe1          O14   2.082       .  S
Fe1           O6   2.048       .  S
Fe1          O12   1.965       .  S
Fe2           O5   2.057       .  S
Fe2           O9   2.073       .  S
Fe2          O13   2.051       .  S
Fe2          O18   2.074       .  S
Fe2          O12   1.968       .  S
Fe3          O21   2.086       .  S
Fe3           O8   2.080       .  S
Fe3          O15   2.070       .  S
Fe3           O4   2.100       .  S
Fe3          O12   1.960       .  S
O4           C11   1.276       .  A
O5           C19   1.265       .  A
O6           C11   1.267       .  A
O7           C10   1.272       .  A
O8           C20   1.274       .  A
O9           C22   1.272       .  A
C10          O15   1.271       .  A
C10         C761   1.486       .  S
C11         C785   1.477       .  S
O13          C16   1.265       .  A
O14          C16   1.272       .  A
C16         C825   1.481       .  S
O17          C22   1.268       .  A
O18          C20   1.272       .  A
C19          O21   1.271       .  A
C19         C801   1.479       .  S
C20         C753   1.475       .  S
C22         C817   1.469       .  S
Fe23         O39   2.048       .  S
Fe23         O29   2.084       .  S
Fe23         O36   2.076       .  S
Fe23         O28   2.043       .  S
Fe23         O34   1.975       .  S
Fe24         O27   2.049       .  S
Fe24         O31   2.073       .  S
Fe24         O35   2.052       .  S
Fe24         O40   2.073       .  S
Fe24         O34   1.977       .  S
Fe25         O43   2.101       .  S
Fe25         O30   2.052       .  S
Fe25         O37   2.067       .  S
Fe25         O26   2.088       .  S
Fe25         O34   1.977       .  S
O26          C33   1.269       .  A
O27          C41   1.265       .  A
O28          C33   1.262       .  A
O29          C32   1.274       .  A
O30          C42   1.267       .  A
O31          C44   1.271       .  A
C32          O37   1.273       .  A
C32         C697   1.491       .  S
C33         C793   1.468       .  S
O35          C38   1.267       .  A
O36          C38   1.271       .  A
C38         C729   1.481       .  S
O39          C44   1.266       .  A
O40          C42   1.270       .  A
C41          O43   1.274       .  A
C41         C777   1.476       .  S
C42         C689   1.467       .  S
C44         C713   1.474       .  S
Fe45         O61   2.055       .  S
Fe45         O51   2.074       .  S
Fe45         O58   2.076       .  S
Fe45         O50   2.060       .  S
Fe45         O56   1.963       .  S
Fe46         O49   2.076       .  S
Fe46         O53   2.063       .  S
Fe46         O57   2.056       .  S
Fe46         O62   2.060       .  S
Fe46         O56   1.962       .  S
Fe47         O65   2.092       .  S
Fe47         O52   2.072       .  S
Fe47         O59   2.072       .  S
Fe47         O48   2.094       .  S
Fe47         O56   1.955       .  S
O48          C55   1.276       .  A
O49          C63   1.270       .  A
O50          C55   1.269       .  A
O51          C54   1.270       .  A
O52          C64   1.270       .  A
O53          C66   1.272       .  A
C54          O59   1.271       .  A
C54         C601   1.490       .  S
C55         C633   1.479       .  S
O57          C60   1.267       .  A
O58          C60   1.272       .  A
C60         C673   1.485       .  S
O61          C66   1.269       .  A
O62          C64   1.266       .  A
C63          O65   1.276       .  A
C63         C649   1.484       .  S
C64         C625   1.470       .  S
C66         C809   1.475       .  S
Fe67         O83   2.052       .  S
Fe67         O73   2.075       .  S
Fe67         O80   2.071       .  S
Fe67         O72   2.069       .  S
Fe67         O78   1.954       .  S
Fe68         O71   2.075       .  S
Fe68         O75   2.078       .  S
Fe68         O79   2.084       .  S
Fe68         O84   2.075       .  S
Fe68         O78   1.963       .  S
Fe69         O87   2.088       .  S
Fe69         O74   2.071       .  S
Fe69         O81   2.080       .  S
Fe69         O70   2.091       .  S
Fe69         O78   1.955       .  S
O70          C77   1.275       .  A
O71          C85   1.271       .  A
O72          C77   1.269       .  A
O73          C76   1.270       .  A
O74          C86   1.271       .  A
O75          C88   1.272       .  A
C76          O81   1.272       .  A
C76         C553   1.480       .  S
C77         C657   1.480   1_556  S
O79          C82   1.273       .  A
O80          C82   1.273       .  A
C82         C593   1.487       .  S
O83          C88   1.267       .  A
O84          C86   1.272       .  A
C85          O87   1.275       .  A
C85         C641   1.479       .  S
C86         C569   1.487       .  S
C88         C721   1.477       .  S
Fe89        O105   2.063       .  S
Fe89         O95   2.080       .  S
Fe89        O102   2.076   1_554  S
Fe89         O94   2.062   1_554  S
Fe89        O100   1.967       .  S
Fe90         O93   2.075       .  S
Fe90         O97   2.068       .  S
Fe90        O101   2.074       .  S
Fe90        O106   2.067       .  S
Fe90        O100   1.968       .  S
Fe91        O109   2.086       .  S
Fe91         O96   2.056       .  S
Fe91        O103   2.059       .  S
Fe91         O92   2.092   1_554  S
Fe91        O100   1.957       .  S
O92          C99   1.274       .  A
O93         C107   1.271       .  A
O94          C99   1.268       .  A
O95          C98   1.272       .  A
O96         C108   1.269       .  A
O97         C110   1.271       .  A
C98         O103   1.269       .  A
C98         C505   1.482       .  S
C99         C521   1.484       .  S
O101        C104   1.272       .  A
O102        C104   1.273   1_556  A
C104        C585   1.488   1_554  S
O105        C110   1.269       .  A
O106        C108   1.269       .  A
C107        O109   1.273       .  A
C107        C537   1.480       .  S
C108        C489   1.481       .  S
C110        C833   1.480       .  S
Fe111       O127   2.062       .  S
Fe111       O117   2.086       .  S
Fe111       O124   2.076       .  S
Fe111       O116   2.063       .  S
Fe111       O122   1.968       .  S
Fe112       O115   2.064       .  S
Fe112       O119   2.076       .  S
Fe112       O123   2.064       .  S
Fe112       O128   2.083       .  S
Fe112       O122   1.972       .  S
Fe113       O131   2.087       .  S
Fe113       O118   2.055       .  S
Fe113       O125   2.056       .  S
Fe113       O114   2.092       .  S
Fe113       O122   1.954       .  S
O114        C121   1.273       .  A
O115        C129   1.267       .  A
O116        C121   1.267       .  A
O117        C120   1.273       .  A
O118        C130   1.270       .  A
O119        C132   1.272       .  A
C120        O125   1.271       .  A
C120        C481   1.489       .  S
C121        C545   1.479       .  S
O123        C126   1.269       .  A
O124        C126   1.273       .  A
C126        C665   1.475       .  S
O127        C132   1.268       .  A
O128        C130   1.272       .  A
C129        O131   1.272       .  A
C129        C529   1.474       .  S
C130        C465   1.488       .  S
C132        C737   1.477       .  S
Fe133       O149   2.056       .  S
Fe133       O139   2.084       .  S
Fe133       O146   2.074       .  S
Fe133       O138   2.070       .  S
Fe133       O144   1.967       .  S
Fe134       O137   2.072       .  S
Fe134       O141   2.072       .  S
Fe134       O145   2.061       .  S
Fe134       O150   2.083       .  S
Fe134       O144   1.970       .  S
Fe135       O153   2.088       .  S
Fe135       O140   2.061       .  S
Fe135       O147   2.058       .  S
Fe135       O136   2.090       .  S
Fe135       O144   1.951       .  S
O136        C143   1.276       .  A
O137        C151   1.271       .  A
O138        C143   1.270       .  A
O139        C142   1.271       .  A
O140        C152   1.268       .  A
O141        C154   1.271       .  A
C142        O147   1.268       .  A
C142        C609   1.490       .  S
C143        C417   1.480       .  S
O145        C148   1.270       .  A
O146        C148   1.273       .  A
C148        C441   1.477       .  S
O149        C154   1.269       .  A
O150        C152   1.270       .  A
C151        O153   1.276       .  A
C151        C401   1.480       .  S
C152        C473   1.484       .  S
C154        C425   1.478       .  S
Fe155       O171   2.075       .  S
Fe155       O161   2.086       .  S
Fe155       O168   2.083       .  S
Fe155       O160   2.074       .  S
Fe155       O166   1.970       .  S
Fe156       O159   2.064   1_556  S
Fe156       O163   2.067   1_556  S
Fe156       O167   2.052       .  S
Fe156       O172   2.070       .  S
Fe156       O166   1.963       .  S
Fe157       O175   2.087   1_556  S
Fe157       O162   2.075       .  S
Fe157       O169   2.064       .  S
Fe157       O158   2.090       .  S
Fe157       O166   1.959       .  S
O158        C165   1.275       .  A
O159        C173   1.268       .  A
O160        C165   1.271       .  A
O161        C164   1.272       .  A
O162        C174   1.271       .  A
O163        C176   1.272   1_554  A
C164        O169   1.270       .  A
C164        C561   1.487       .  S
C165        C393   1.479       .  S
O167        C170   1.266       .  A
O168        C170   1.273       .  A
C170        C377   1.479       .  S
O171        C176   1.273       .  A
O172        C174   1.269       .  A
C173        O175   1.273       .  A
C173        C409   1.477       .  S
C174        C513   1.477       .  S
C176        C369   1.483   1_556  S
Fe177       O193   2.065       .  S
Fe177       O183   2.078       .  S
Fe177       O190   2.080       .  S
Fe177       O182   2.061       .  S
Fe177       O188   1.970       .  S
Fe178       O181   2.053       .  S
Fe178       O185   2.086       .  S
Fe178       O189   2.058       .  S
Fe178       O194   2.092       .  S
Fe178       O188   1.961       .  S
Fe179       O197   2.101       .  S
Fe179       O184   2.053       .  S
Fe179       O191   2.049       .  S
Fe179       O180   2.100       .  S
Fe179       O188   1.962       .  S
O180        C187   1.276       .  A
O181        C195   1.267       .  A
O182        C187   1.268       .  A
O183        C186   1.271       .  A
O184        C196   1.267       .  A
O185        C198   1.273       .  A
C186        O191   1.268       .  A
C186        C497   1.476       .  S
C187        C321   1.482   1_554  S
O189        C192   1.268       .  A
O190        C192   1.273       .  A
C192        C361   1.483       .  S
O193        C198   1.268       .  A
O194        C196   1.274       .  A
C195        O197   1.276       .  A
C195        C337   1.483       .  S
C196        C769   1.477       .  S
C198        C345   1.480       .  S
Fe199       O215   2.060       .  S
Fe199       O205   2.092       .  S
Fe199       O212   2.087       .  S
Fe199       O204   2.065       .  S
Fe199       O210   1.972       .  S
Fe200       O203   2.063       .  S
Fe200       O207   2.070       .  S
Fe200       O211   2.054       .  S
Fe200       O216   2.077       .  S
Fe200       O210   1.973       .  S
Fe201       O219   2.096       .  S
Fe201       O206   2.053       .  S
Fe201       O213   2.052       .  S
Fe201       O202   2.095       .  S
Fe201       O210   1.958       .  S
O202        C209   1.277       .  A
O203        C217   1.268       .  A
O204        C209   1.270       .  A
O205        C208   1.272       .  A
O206        C218   1.267       .  A
O207        C220   1.271       .  A
C208        O213   1.266       .  A
C208        C705   1.483       .  S
C209        C313   1.480       .  S
O211        C214   1.268       .  A
O212        C214   1.274       .  A
C214        C297   1.486       .  S
O215        C220   1.269       .  A
O216        C218   1.268       .  A
C217        O219   1.277       .  A
C217        C329   1.476       .  S
C218        C457   1.481       .  S
C220        C433   1.476       .  S
Fe221       O237   2.045       .  S
Fe221       O227   2.102       .  S
Fe221       O234   2.096       .  S
Fe221       O226   2.034       .  S
Fe221       O232   1.959       .  S
Fe222       O225   2.037       .  S
Fe222       O229   2.078       .  S
Fe222       O233   2.052       .  S
Fe222       O238   2.091       .  S
Fe222       O232   1.963       .  S
Fe223       O241   2.108       .  S
Fe223       O228   2.038       .  S
Fe223       O235   2.047       .  S
Fe223       O224   2.096       .  S
Fe223       O232   1.956       .  S
O224        C231   1.273       .  A
O225        C239   1.265       .  A
O226        C231   1.264       .  A
O227        C230   1.276       .  A
O228        C240   1.265       .  A
O229        C242   1.270       .  A
C230        O235   1.269       .  A
C230        C745   1.489       .  S
C231        C281   1.470       .  S
O233        C236   1.269       .  A
O234        C236   1.277       .  A
C236        C353   1.482       .  S
O237        C242   1.266       .  A
O238        C240   1.272       .  A
C239        O241   1.276       .  A
C239        C265   1.470       .  S
C240        C617   1.481       .  S
C242        C449   1.468       .  S
Fe243       O259   2.055       .  S
Fe243       O249   2.083       .  S
Fe243       O256   2.067       .  S
Fe243       O248   2.048       .  S
Fe243       O254   1.967       .  S
Fe244       O247   2.041       .  S
Fe244       O251   2.082       .  S
Fe244       O255   2.060       .  S
Fe244       O260   2.091       .  S
Fe244       O254   1.967       .  S
Fe245       O263   2.080       .  S
Fe245       O250   2.058       .  S
Fe245       O257   2.044       .  S
Fe245       O246   2.100       .  S
Fe245       O254   1.970       .  S
O246        C253   1.274       .  A
O247        C261   1.261       .  A
O248        C253   1.266       .  A
O249        C252   1.270       .  A
O250        C262   1.274       .  A
O251        C264   1.274       .  A
C252        O257   1.265       .  A
C252        C681   1.463       .  S
C253        C273   1.471       .  S
O255        C258   1.266       .  A
O256        C258   1.268       .  A
C258        C305   1.472       .  S
O259        C264   1.270       .  A
O260        C262   1.277       .  A
C261        O263   1.267       .  A
C261        C289   1.463       .  S
C262        C577   1.484       .  S
C264        C385   1.479       .  S
C265        C266   1.403       .  A
C265        C270   1.404       .  A
C266        C267   1.393       .  A
C266        H275   1.085       .  S
C267        C268   1.399       .  A
C267        H276   1.083       .  S
C268        C274   1.405       .  A
C268        C269   1.417       .  A
C269        C271   1.404       .  A
C269        C270   1.411       .  A
C270        H277   1.084       .  S
C271        C272   1.401       .  A
C271        H278   1.083       .  S
C272        C273   1.404       .  A
C272        H279   1.084       .  S
C273        C274   1.401       .  A
C274        H280   1.084       .  S
C281        C282   1.402       .  A
C281        C286   1.404       .  A
C282        C283   1.401       .  A
C282        H291   1.083       .  S
C283        C284   1.406       .  A
C283        H292   1.084       .  S
C284        C290   1.405   1_554  A
C284        C285   1.415       .  A
C285        C287   1.402       .  A
C285        C286   1.400       .  A
C286        H293   1.085       .  S
C287        C288   1.395   1_554  A
C287        H294   1.084       .  S
C288        C289   1.401       .  A
C288        H295   1.084       .  S
C289        C290   1.404       .  A
C290        H296   1.085       .  S
C297        C298   1.406       .  A
C297        C302   1.410       .  A
C298        C299   1.401       .  A
C298        H307   1.082       .  S
C299        C300   1.404       .  A
C299        H308   1.085       .  S
C300        C306   1.406       .  A
C300        C301   1.413       .  A
C301        C303   1.403       .  A
C301        C302   1.402       .  A
C302        H309   1.086       .  S
C303        C304   1.397       .  A
C303        H310   1.086       .  S
C304        C305   1.402       .  A
C304        H311   1.082       .  S
C305        C306   1.406       .  A
C306        H312   1.086       .  S
C313        C314   1.402       .  A
C313        C318   1.411       .  A
C314        C315   1.401       .  A
C314        H323   1.083       .  S
C315        C316   1.406       .  A
C315        H324   1.084       .  S
C316        C322   1.406       .  A
C316        C317   1.412       .  A
C317        C319   1.407       .  A
C317        C318   1.408       .  A
C318        H325   1.085       .  S
C319        C320   1.404       .  A
C319        H326   1.084       .  S
C320        C321   1.403       .  A
C320        H327   1.083       .  S
C321        C322   1.409       .  A
C322        H328   1.086       .  S
C329        C330   1.401       .  A
C329        C334   1.410       .  A
C330        C331   1.399       .  A
C330        H339   1.084       .  S
C331        C332   1.405       .  A
C331        H340   1.083       .  S
C332        C338   1.403       .  A
C332        C333   1.412       .  A
C333        C335   1.409       .  A
C333        C334   1.410       .  A
C334        H341   1.084       .  S
C335        C336   1.406       .  A
C335        H342   1.083       .  S
C336        C337   1.403       .  A
C336        H343   1.083       .  S
C337        C338   1.410       .  A
C338        H344   1.084       .  S
C345        C346   1.404       .  A
C345        C350   1.407       .  A
C346        C347   1.401       .  A
C346        H355   1.082       .  S
C347        C348   1.405       .  A
C347        H356   1.086       .  S
C348        C354   1.406       .  A
C348        C349   1.414       .  A
C349        C351   1.403       .  A
C349        C350   1.404       .  A
C350        H357   1.087       .  S
C351        C352   1.398       .  A
C351        H358   1.086       .  S
C352        C353   1.405       .  A
C352        H359   1.082       .  S
C353        C354   1.409       .  A
C354        H360   1.087       .  S
C361        C362   1.405       .  A
C361        C366   1.409       .  A
C362        C363   1.400   1_554  A
C362        H371   1.082   1_554  S
C363        C364   1.404   1_556  A
C363        H372   1.086       .  S
C364        C370   1.404   1_554  A
C364        C365   1.412       .  A
C365        C367   1.402       .  A
C365        C366   1.402       .  A
C366        H373   1.086       .  S
C367        C368   1.397       .  A
C367        H374   1.086       .  S
C368        C369   1.406       .  A
C368        H375   1.082       .  S
C369        C370   1.409   1_554  A
C370        H376   1.087       .  S
C377        C378   1.403       .  A
C377        C382   1.410       .  A
C378        C379   1.399       .  A
C378        H387   1.083       .  S
C379        C380   1.404       .  A
C379        H388   1.084       .  S
C380        C386   1.403       .  A
C380        C381   1.412       .  A
C381        C383   1.404       .  A
C381        C382   1.402       .  A
C382        H389   1.084       .  S
C383        C384   1.398       .  A
C383        H390   1.084       .  S
C384        C385   1.405       .  A
C384        H391   1.083       .  S
C385        C386   1.407       .  A
C386        H392   1.085       .  S
C393        C394   1.403       .  A
C393        C398   1.409       .  A
C394        C395   1.400       .  A
C394        H403   1.083       .  S
C395        C396   1.404       .  A
C395        H404   1.084       .  S
C396        C402   1.407       .  A
C396        C397   1.414       .  A
C397        C399   1.405       .  A
C397        C398   1.409       .  A
C398        H405   1.086       .  S
C399        C400   1.402       .  A
C399        H406   1.085       .  S
C400        C401   1.404       .  A
C400        H407   1.083       .  S
C401        C402   1.408       .  A
C402        H408   1.086       .  S
C409        C410   1.403       .  A
C409        C414   1.407       .  A
C410        C411   1.402       .  A
C410        H419   1.083       .  S
C411        C412   1.406       .  A
C411        H420   1.085       .  S
C412        C418   1.407       .  A
C412        C413   1.413       .  A
C413        C415   1.405       .  A
C413        C414   1.405       .  A
C414        H421   1.086       .  S
C415        C416   1.401       .  A
C415        H422   1.085       .  S
C416        C417   1.402       .  A
C416        H423   1.083       .  S
C417        C418   1.410       .  A
C418        H424   1.085       .  S
C425        C426   1.405       .  A
C425        C430   1.407       .  A
C426        C427   1.399       .  A
C426        H435   1.082       .  S
C427        C428   1.404       .  A
C427        H436   1.086       .  S
C428        C434   1.401       .  A
C428        C429   1.413       .  A
C429        C431   1.402       .  A
C429        C430   1.399       .  A
C430        H437   1.086       .  S
C431        C432   1.396       .  A
C431        H438   1.086       .  S
C432        C433   1.404       .  A
C432        H439   1.082       .  S
C433        C434   1.407       .  A
C434        H440   1.087       .  S
C441        C442   1.403       .  A
C441        C446   1.408       .  A
C442        C443   1.397       .  A
C442        H451   1.083       .  S
C443        C444   1.403       .  A
C443        H452   1.085       .  S
C444        C450   1.400       .  A
C444        C445   1.413       .  A
C445        C447   1.404       .  A
C445        C446   1.401       .  A
C446        H453   1.086       .  S
C447        C448   1.398       .  A
C447        H454   1.085       .  S
C448        C449   1.402       .  A
C448        H455   1.082       .  S
C449        C450   1.403       .  A
C450        H456   1.086       .  S
C457        C458   1.406       .  A
C457        C462   1.411       .  A
C458        C459   1.387       .  A
C458        H467   1.084       .  S
C459        C460   1.396       .  A
C459        H468   1.085       .  S
C460        C466   1.395       .  A
C460        C461   1.413       .  A
C461        C463   1.407       .  A
C461        C462   1.413       .  A
C462        H469   1.085       .  S
C463        C464   1.407       .  A
C463        H470   1.085       .  S
C464        C465   1.408       .  A
C464        H471   1.081       .  S
C465        C466   1.405       .  A
C466        H472   1.086       .  S
C473        C474   1.407       .  A
C473        C478   1.403       .  A
C474        C475   1.410       .  A
C474        H483   1.082       .  S
C475        C476   1.409   1_545  A
C475        H484   1.084   1_545  S
C476        C482   1.416       .  A
C476        C477   1.413   1_565  A
C477        C479   1.395   1_545  A
C477        C478   1.396       .  A
C478        H485   1.085       .  S
C479        C480   1.387       .  A
C479        H486   1.084       .  S
C480        C481   1.408       .  A
C480        H487   1.083       .  S
C481        C482   1.414       .  A
C482        H488   1.084       .  S
C489        C490   1.408       .  A
C489        C494   1.403       .  A
C490        C491   1.404       .  A
C490        H499   1.083       .  S
C491        C492   1.405       .  A
C491        H500   1.084       .  S
C492        C498   1.409       .  A
C492        C493   1.414       .  A
C493        C495   1.395       .  A
C493        C494   1.394       .  A
C494        H501   1.086       .  S
C495        C496   1.387       .  A
C495        H502   1.086       .  S
C496        C497   1.407       .  A
C496        H503   1.082       .  S
C497        C498   1.407       .  A
C498        H504   1.085       .  S
C505        C506   1.407       .  A
C505        C510   1.410       .  A
C506        C507   1.392       .  A
C506        H515   1.083       .  S
C507        C508   1.398   1_565  A
C507        H516   1.085   1_565  S
C508        C514   1.400       .  A
C508        C509   1.415   1_544  A
C509        C511   1.407   1_565  A
C509        C510   1.412   1_556  A
C510        H517   1.085   1_554  S
C511        C512   1.405       .  A
C511        H518   1.084   1_545  S
C512        C513   1.405       .  A
C512        H519   1.083       .  S
C513        C514   1.402   1_556  A
C514        H520   1.086       .  S
C521        C522   1.404       .  A
C521        C526   1.409       .  A
C522        C523   1.404       .  A
C522        H531   1.084       .  S
C523        C524   1.407       .  A
C523        H532   1.083       .  S
C524        C530   1.410       .  A
C524        C525   1.413       .  A
C525        C527   1.404       .  A
C525        C526   1.404       .  A
C526        H533   1.084       .  S
C527        C528   1.398       .  A
C527        H534   1.083       .  S
C528        C529   1.401       .  A
C528        H535   1.084       .  S
C529        C530   1.409       .  A
C530        H536   1.084       .  S
C537        C538   1.403       .  A
C537        C542   1.409       .  A
C538        C539   1.401       .  A
C538        H547   1.083       .  S
C539        C540   1.405       .  A
C539        H548   1.085       .  S
C540        C546   1.406       .  A
C540        C541   1.413       .  A
C541        C543   1.406       .  A
C541        C542   1.408       .  A
C542        H549   1.085       .  S
C543        C544   1.403       .  A
C543        H550   1.085       .  S
C544        C545   1.403       .  A
C544        H551   1.083       .  S
C545        C546   1.408       .  A
C546        H552   1.086       .  S
C553        C554   1.406       .  A
C553        C558   1.402       .  A
C554        C555   1.406       .  A
C554        H563   1.082       .  S
C555        C556   1.407   1_455  A
C555        H564   1.085   1_455  S
C556        C562   1.415       .  A
C556        C557   1.415   1_655  A
C557        C559   1.397   1_455  A
C557        C558   1.402       .  A
C558        H565   1.087       .  S
C559        C560   1.392       .  A
C559        H566   1.085   1_655  S
C560        C561   1.407       .  A
C560        H567   1.083       .  S
C561        C562   1.411       .  A
C562        H568   1.085       .  S
C569        C570   1.406       .  A
C569        C574   1.409       .  A
C570        C571   1.403       .  A
C570        H579   1.083       .  S
C571        C572   1.405       .  A
C571        H580   1.082       .  S
C572        C578   1.410       .  A
C572        C573   1.412       .  A
C573        C575   1.401       .  A
C573        C574   1.402       .  A
C574        H581   1.082       .  S
C575        C576   1.395       .  A
C575        H582   1.081       .  S
C576        C577   1.406       .  A
C576        H583   1.084       .  S
C577        C578   1.409       .  A
C578        H584   1.083       .  S
C585        C586   1.406       .  A
C585        C590   1.409   1_556  A
C586        C587   1.402       .  A
C586        H595   1.083       .  S
C587        C588   1.405       .  A
C587        H596   1.084       .  S
C588        C594   1.409       .  A
C588        C589   1.412       .  A
C589        C591   1.402   1_556  A
C589        C590   1.405   1_556  A
C590        H597   1.085       .  S
C591        C592   1.398   1_554  A
C591        H598   1.084       .  S
C592        C593   1.405       .  A
C592        H599   1.083   1_556  S
C593        C594   1.411       .  A
C594        H600   1.085       .  S
C601        C602   1.408       .  A
C601        C606   1.406       .  A
C602        C603   1.406       .  A
C602        H611   1.083       .  S
C603        C604   1.406   1_455  A
C603        H612   1.083   1_455  S
C604        C610   1.415       .  A
C604        C605   1.413   1_655  A
C605        C607   1.396   1_455  A
C605        C606   1.401       .  A
C606        H613   1.084       .  S
C607        C608   1.390       .  A
C607        H614   1.083       .  S
C608        C609   1.409       .  A
C608        H615   1.083       .  S
C609        C610   1.412       .  A
C610        H616   1.084       .  S
C617        C618   1.408       .  A
C617        C622   1.410       .  A
C618        C619   1.389       .  A
C618        H627   1.083       .  S
C619        C620   1.396       .  A
C619        H628   1.085       .  S
C620        C626   1.396       .  A
C620        C621   1.414       .  A
C621        C623   1.406       .  A
C621        C622   1.408       .  A
C622        H629   1.085       .  S
C623        C624   1.403       .  A
C623        H630   1.085       .  S
C624        C625   1.405       .  A
C624        H631   1.082       .  S
C625        C626   1.399       .  A
C626        H632   1.086       .  S
C633        C634   1.402       .  A
C633        C638   1.409       .  A
C634        C635   1.402       .  A
C634        H643   1.083       .  S
C635        C636   1.406       .  A
C635        H644   1.084       .  S
C636        C642   1.408       .  A
C636        C637   1.413       .  A
C637        C639   1.405       .  A
C637        C638   1.405       .  A
C638        H645   1.085       .  S
C639        C640   1.401       .  A
C639        H646   1.083       .  S
C640        C641   1.402       .  A
C640        H647   1.083       .  S
C641        C642   1.409       .  A
C642        H648   1.085       .  S
C649        C650   1.403       .  A
C649        C654   1.411       .  A
C650        C651   1.402       .  A
C650        H659   1.083       .  S
C651        C652   1.405       .  A
C651        H660   1.084       .  S
C652        C658   1.408       .  A
C652        C653   1.413       .  A
C653        C655   1.407       .  A
C653        C654   1.410       .  A
C654        H661   1.084       .  S
C655        C656   1.403       .  A
C655        H662   1.083       .  S
C656        C657   1.403       .  A
C656        H663   1.084       .  S
C657        C658   1.408       .  A
C658        H664   1.084       .  S
C665        C666   1.402       .  A
C665        C670   1.408       .  A
C666        C667   1.399       .  A
C666        H675   1.084       .  S
C667        C668   1.405       .  A
C667        H676   1.081       .  S
C668        C674   1.402       .  A
C668        C669   1.411       .  A
C669        C671   1.404       .  A
C669        C670   1.403       .  A
C670        H677   1.082       .  S
C671        C672   1.400       .  A
C671        H678   1.081       .  S
C672        C673   1.405       .  A
C672        H679   1.084       .  S
C673        C674   1.411       .  A
C674        H680   1.081       .  S
C681        C682   1.402       .  A
C681        C686   1.402       .  A
C682        C683   1.395       .  A
C682        H691   1.083       .  S
C683        C684   1.401   1_545  A
C683        H692   1.085       .  S
C684        C690   1.401       .  A
C684        C685   1.417   1_565  A
C685        C687   1.402   1_545  A
C685        C686   1.403       .  A
C686        H693   1.085       .  S
C687        C688   1.396       .  A
C687        H694   1.083   1_565  S
C688        C689   1.404       .  A
C688        H695   1.084       .  S
C689        C690   1.401       .  A
C690        H696   1.086       .  S
C697        C698   1.407       .  A
C697        C702   1.415       .  A
C698        C699   1.395       .  A
C698        H707   1.084       .  S
C699        C700   1.401   1_455  A
C699        H708   1.082   1_455  S
C700        C706   1.400       .  A
C700        C701   1.411   1_655  A
C701        C703   1.410   1_455  A
C701        C702   1.412       .  A
C702        H709   1.082       .  S
C703        C704   1.408       .  A
C703        H710   1.082   1_655  S
C704        C705   1.404       .  A
C704        H711   1.083       .  S
C705        C706   1.407       .  A
C706        H712   1.083       .  S
C713        C714   1.402       .  A
C713        C718   1.410       .  A
C714        C715   1.396       .  A
C714        H723   1.084       .  S
C715        C716   1.403       .  A
C715        H724   1.082       .  S
C716        C722   1.398       .  A
C716        C717   1.411       .  A
C717        C719   1.406       .  A
C717        C718   1.403       .  A
C718        H725   1.082       .  S
C719        C720   1.401       .  A
C719        H726   1.082       .  S
C720        C721   1.403       .  A
C720        H727   1.084       .  S
C721        C722   1.408       .  A
C722        H728   1.083       .  S
C729        C730   1.405       .  A
C729        C734   1.409       .  A
C730        C731   1.397       .  A
C730        H739   1.083       .  S
C731        C732   1.403       .  A
C731        H740   1.084       .  S
C732        C738   1.402       .  A
C732        C733   1.413       .  A
C733        C735   1.405       .  A
C733        C734   1.404       .  A
C734        H741   1.085       .  S
C735        C736   1.400       .  A
C735        H742   1.085       .  S
C736        C737   1.403       .  A
C736        H743   1.082       .  S
C737        C738   1.407       .  A
C738        H744   1.085       .  S
C745        C746   1.409       .  A
C745        C750   1.412       .  A
C746        C747   1.392       .  A
C746        H755   1.081       .  S
C747        C748   1.397   1_545  A
C747        H756   1.087   1_545  S
C748        C754   1.400       .  A
C748        C749   1.415   1_565  A
C749        C751   1.407   1_545  A
C749        C750   1.412       .  A
C750        H757   1.086       .  S
C751        C752   1.406       .  A
C751        H758   1.086   1_565  S
C752        C753   1.404       .  A
C752        H759   1.082       .  S
C753        C754   1.401       .  A
C754        H760   1.088       .  S
C761        C762   1.407       .  A
C761        C766   1.411       .  A
C762        C763   1.394       .  A
C762        H771   1.082       .  S
C763        C764   1.399   1_455  A
C763        H772   1.087   1_455  S
C764        C770   1.400       .  A
C764        C765   1.414   1_655  A
C765        C767   1.408   1_455  A
C765        C766   1.412       .  A
C766        H773   1.087       .  S
C767        C768   1.406       .  A
C767        H774   1.086   1_655  S
C768        C769   1.403       .  A
C768        H775   1.082       .  S
C769        C770   1.404       .  A
C770        H776   1.088       .  S
C777        C778   1.406       .  A
C777        C782   1.402       .  A
C778        C779   1.399       .  A
C778        H787   1.083       .  S
C779        C780   1.401       .  A
C779        H788   1.086       .  S
C780        C786   1.412   1_556  A
C780        C781   1.419       .  A
C781        C783   1.399       .  A
C781        C782   1.410       .  A
C782        H789   1.087       .  S
C783        C784   1.396   1_556  A
C783        H790   1.087       .  S
C784        C785   1.406       .  A
C784        H791   1.082       .  S
C785        C786   1.403       .  A
C786        H792   1.087       .  S
C793        C794   1.402       .  A
C793        C798   1.404       .  A
C794        C795   1.398       .  A
C794        H803   1.084       .  S
C795        C796   1.404       .  A
C795        H804   1.083       .  S
C796        C802   1.404       .  A
C796        C797   1.414       .  A
C797        C799   1.405       .  A
C797        C798   1.406       .  A
C798        H805   1.085       .  S
C799        C800   1.401       .  A
C799        H806   1.084       .  S
C800        C801   1.403       .  A
C800        H807   1.083       .  S
C801        C802   1.408       .  A
C802        H808   1.084       .  S
C809        C810   1.404       .  A
C809        C814   1.410       .  A
C810        C811   1.394       .  A
C810        H819   1.082       .  S
C811        C812   1.401       .  A
C811        H820   1.084       .  S
C812        C818   1.394       .  A
C812        C813   1.411       .  A
C813        C815   1.406       .  A
C813        C814   1.399       .  A
C814        H821   1.084       .  S
C815        C816   1.399       .  A
C815        H822   1.083       .  S
C816        C817   1.402       .  A
C816        H823   1.083       .  S
C817        C818   1.405       .  A
C818        H824   1.085       .  S
C825        C826   1.403       .  A
C825        C830   1.411       .  A
C826        C827   1.400       .  A
C826        H835   1.083       .  S
C827        C828   1.405       .  A
C827        H836   1.083       .  S
C828        C834   1.402       .  A
C828        C829   1.410       .  A
C829        C831   1.405       .  A
C829        C830   1.401       .  A
C830        H837   1.083       .  S
C831        C832   1.399       .  A
C831        H838   1.083       .  S
C832        C833   1.404       .  A
C832        H839   1.083       .  S
C833        C834   1.410       .  A
C834        H840   1.083       .  S
