geometry optimzed in LAMMPS
_audit_creation_date              2020-11-30 
_audit_creation_method            'lammps2cif' 
_symmetry_space_group_name_H-M    'P1' 
_symmetry_Int_Tables_number       1 
_symmetry_cell_setting            triclinic 
loop_ 
_symmetry_equiv_pos_as_xyz 
  x,y,z 
_cell_length_a                    69.8409504 
_cell_length_b                    69.70610783424237 
_cell_length_c                    42.01386723750294 
_cell_angle_alpha                 90.1132391816784 
_cell_angle_beta                  89.96215306553518 
_cell_angle_gamma                 120.12169244046859 
loop_ 
_atom_site_label 
_atom_site_type_symbol 
_atom_site_fract_x 
_atom_site_fract_y 
_atom_site_fract_z 
_atom_site_charge 
O1          O  0.60370846  0.41610642  0.47191664    -0.88600
C2          C  0.56109148  0.39117623  0.39794361     0.87400
Mg3        Mg  0.59357145  0.41194522  0.52027802     1.58100
O4          O  0.58550959  0.44864659  0.40623006    -0.88300
O5          O  0.62356470  0.44353899  0.43916245    -0.75700
C6          C  0.51800087  0.44276899  0.52494412     0.92500
O7          O  0.55579575  0.37250864  0.46881200    -0.75500
O8          O  0.52380317  0.43015762  0.53837192    -0.83000
Mg9        Mg  0.58925166  0.38696875  0.44291874     1.58000
C10         C  0.54571732  0.47767634  0.40078170     0.92400
O11         O  0.62193972  0.39845088  0.41786119    -0.81200
H12         H  0.61219175  0.47900908  0.40664399    -0.06600
C13         C  0.52400955  0.41285521  0.44759479     0.87300
O14         O  0.59807952  0.44716505  0.52013531    -0.75800
O15         O  0.57965279  0.40321341  0.40948245    -0.88500
O16         O  0.55124577  0.46566334  0.38462869    -0.81300
C17         C  0.57539080  0.43018246  0.32555973     0.92500
C18         C  0.63368311  0.40947836  0.39429774     0.92400
Mg19       Mg  0.55624414  0.46007833  0.46717616     1.58000
O20         O  0.52497347  0.45085733  0.49729524    -0.81200
O21         O  0.58872050  0.47453039  0.43898261    -0.75500
O22         O  0.58995402  0.42788090  0.34078425    -0.81300
O23         O  0.59862544  0.36851002  0.47704430    -0.83000
O24         O  0.55913299  0.42039606  0.57075842    -0.81400
C25         C  0.59603216  0.46783559  0.41646046     0.86800
O26         O  0.56763198  0.44426199  0.50064268    -0.88500
O27         O  0.54124992  0.42988437  0.43993463    -0.88600
O28         O  0.52164955  0.40411853  0.47490732    -0.75700
Mg29       Mg  0.60525088  0.43457306  0.39130469     1.58000
O30         O  0.56165962  0.43432030  0.33955771    -0.83000
H31         H  0.63305937  0.44186285  0.48418896    -0.06800
O32         O  0.55975454  0.39735441  0.50439389    -0.88300
H33         H  0.53192877  0.36799456  0.50048127    -0.06600
H34         H  0.59281986  0.47318410  0.51577364    -0.06800
C35         C  0.54857965  0.37883527  0.49200107     0.86800
C36         C  0.62067374  0.43388570  0.46582928     0.87400
C37         C  0.58625910  0.45559252  0.51243158     0.87400
H38         H  0.51081294  0.40488292  0.43034264    -0.06700
O39         O  0.54802883  0.39836958  0.39190136    -0.75800
Mg40       Mg  0.54232895  0.41347325  0.52102370     1.58000
H41         H  0.55542695  0.37377346  0.39432245    -0.06800
C42         C  0.59626651  0.36544203  0.50688308     0.92400
O43         O  0.58416378  0.40954428  0.57195910    -0.83000
C44         C  0.57246881  0.41625740  0.58598696     0.92500
O45         O  0.62820464  0.42103882  0.37706623    -0.83000
Mg46       Mg  0.55147929  0.43272435  0.39101522     1.58200
O47         O  0.59187333  0.37763819  0.52464857    -0.81300
O48         O  0.54451252  0.47661533  0.43108250    -0.83000
O49         O  0.57852786  0.39110071  0.94096810    -0.88600
C50         C  0.60151927  0.43322585  0.01604253     0.87400
Mg51       Mg  0.58391970  0.40242445  0.89264513     1.58100
O52         O  0.54426895  0.40791332  0.00489524    -0.88300
O53         O  0.55082395  0.37047455  0.97283184    -0.75700
C54         C  0.55194376  0.47812048  0.88866408     0.92500
O55         O  0.62138673  0.43929277  0.94625778    -0.75500
O56         O  0.56493398  0.47276100  0.87509572    -0.83000
Mg57       Mg  0.60684007  0.40552480  0.97162838     1.58000
C58         C  0.51313506  0.44462758  0.01064532     0.92400
O59         O  0.59572728  0.37258267  0.99725020    -0.81200
H60         H  0.51456030  0.38046498  0.00224281    -0.06600
C61         C  0.57955844  0.47015012  0.96601588     0.87300
O62         O  0.54862199  0.39751838  0.89100860    -0.75800
O63         O  0.58981927  0.41466736  0.00419211    -0.88500
O64         O  0.52663758  0.44079737  0.02572255    -0.81300
C65         C  0.56115084  0.41800935  0.08664271     0.92500
C66         C  0.58473999  0.36160981  0.02146536     0.92400
Mg67       Mg  0.53299316  0.43732002  0.94396247     1.58000
O68         O  0.54242948  0.46942832  0.91507416    -0.81200
O69         O  0.51906292  0.40428033  0.97055072    -0.75500
O70         O  0.56359800  0.40351723  0.07143760    -0.81300
O71         O  0.62610189  0.39686332  0.93844784    -0.83000
O72         O  0.57634563  0.43787269  0.84263750    -0.81400
C73         C  0.52550917  0.39700373  0.99338099     0.86800
O74         O  0.55022681  0.42749608  0.91062982    -0.88500
O75         O  0.56273213  0.45238737  0.97240164    -0.88600
O76         O  0.58921011  0.47339805  0.93930517    -0.75700
Mg77       Mg  0.55835512  0.38867784  0.02093257     1.58000
O78         O  0.55729252  0.43187777  0.07257964    -0.83000
H79         H  0.55351938  0.36147025  0.92783011    -0.06800
O80         O  0.59735365  0.43592636  0.90984596    -0.88300
H81         H  0.62648273  0.46378882  0.91539269    -0.06600
H82         H  0.52213970  0.40209248  0.89370466    -0.06800
C83         C  0.61552366  0.44694657  0.92311858     0.86800
C84         C  0.56090671  0.37381101  0.94642374     0.87400
C85         C  0.53962824  0.40895450  0.89813303     0.87400
H86         H  0.58661189  0.48300003  0.98396789    -0.06700
O87         O  0.59413087  0.44621856  0.02142892    -0.75800
Mg88       Mg  0.58142104  0.45361939  0.89266474     1.58000
H89         H  0.61882843  0.43898082  0.02038434    -0.06800
C90         C  0.63009431  0.39963624  0.90887616     0.92400
O91         O  0.58780641  0.41336327  0.84093542    -0.83000
C92         C  0.58136640  0.42533555  0.82690561     0.92500
O93         O  0.57231965  0.36690548  0.03680777    -0.83000
Mg94       Mg  0.55954707  0.44187424  0.02091016     1.58200
O95         O  0.61859203  0.40442154  0.89023025    -0.81300
O96         O  0.51404793  0.44655327  0.98034207    -0.83000
O97         O  0.39735047  0.58203588  0.21934292    -0.88600
C98         C  0.43923245  0.60801503  0.14549895     0.87400
Mg99       Mg  0.40844874  0.58598041  0.26750622     1.58100
O100        O  0.41401697  0.55043847  0.15142606    -0.88300
O101        O  0.37665757  0.55547564  0.18574761    -0.75700
C102        C  0.48118606  0.55142914  0.26778136     0.92500
O103        O  0.44491653  0.62529604  0.21620765    -0.75500
O104        O  0.47718448  0.56532650  0.28157928    -0.83000
Mg105      Mg  0.41090374  0.61134208  0.19128783     1.58000
C106        C  0.45073246  0.51933056  0.14221005     0.92400
O107        O  0.37736910  0.59940347  0.16744511    -0.81200
H108        H  0.38655095  0.52067725  0.15119475    -0.06600
C109        C  0.47602159  0.58332843  0.19227063     0.87300
O110        O  0.40271725  0.55035968  0.26649324    -0.75800
O111        O  0.42039474  0.59595524  0.15616780    -0.88500
O112        O  0.44702255  0.53333097  0.12823268    -0.81300
C113        C  0.42475574  0.57013351  0.07137283     0.92500
C114        C  0.36568887  0.58876067  0.14348054     0.92400
Mg115      Mg  0.44199186  0.53602355  0.21067630     1.58000
O116        O  0.47253069  0.54270635  0.24094718    -0.81200
O117        O  0.40965963  0.52366458  0.18308301    -0.75500
O118        O  0.40984039  0.57189036  0.08661682    -0.81300
O119        O  0.40165244  0.62910906  0.22721427    -0.83000
O120        O  0.44273674  0.57604685  0.31546869    -0.81400
C121        C  0.40288625  0.53116904  0.16102072     0.86800
O122        O  0.43247202  0.55249242  0.24556959    -0.88500
O123        O  0.45806418  0.56706101  0.18492797    -0.88600
O124        O  0.47928153  0.59218234  0.21962159    -0.75700
Mg125      Mg  0.39467938  0.56484161  0.13749008     1.58000
O126        O  0.43844841  0.56596790  0.08524793    -0.83000
H127        H  0.36786902  0.55645719  0.23151261    -0.06800
O128        O  0.44182428  0.59984453  0.25008083    -0.88300
H129        H  0.46966005  0.62917555  0.24572277    -0.06600
H130        H  0.40713692  0.52387091  0.26112929    -0.06800
C131        C  0.45277218  0.61850214  0.23799592     0.86800
C132        C  0.38010167  0.56456204  0.21302658     0.87400
C133        C  0.41402236  0.54151895  0.25799439     0.87400
H134        H  0.48901718  0.59063518  0.17463308    -0.06700
O135        O  0.45223166  0.60070915  0.13956149    -0.75800
Mg136      Mg  0.45893183  0.58295334  0.26566776     1.58000
H137        H  0.44522444  0.62554788  0.14278256    -0.06800
C138        C  0.40622203  0.63270568  0.25660354     0.92400
O139        O  0.41873914  0.58802050  0.31900077    -0.83000
C140        C  0.43027122  0.58070566  0.33195569     0.92500
O141        O  0.37186353  0.57850489  0.12463807    -0.83000
Mg142      Mg  0.44800452  0.56610683  0.13651102     1.58200
O143        O  0.41193202  0.62097738  0.27299322    -0.81300
O144        O  0.45156863  0.51849902  0.17252303    -0.83000
O145        O  0.39945023  0.58541618  0.72005729    -0.88600
C146        C  0.44125353  0.60942628  0.64474600     0.87400
Mg147      Mg  0.41070115  0.58967518  0.76812255     1.58100
O148        O  0.41572946  0.55179766  0.65339097    -0.88300
O149        O  0.37877202  0.55827345  0.68722572    -0.75700
C150        C  0.48357113  0.55473523  0.76994328     0.92500
O151        O  0.44788968  0.62808635  0.71605165    -0.75500
O152        O  0.47805179  0.56733742  0.78421917    -0.83000
Mg153      Mg  0.41411143  0.61447030  0.69099981     1.58000
C154        C  0.45395565  0.52155822  0.64546496     0.92400
O155        O  0.38115677  0.60388054  0.66625450    -0.81200
H156        H  0.38849014  0.52183420  0.65410302    -0.06600
C157        C  0.47805108  0.58600044  0.69313676     0.87300
O158        O  0.40507360  0.55394300  0.76751999    -0.75800
O159        O  0.42288216  0.59776282  0.65697862    -0.88500
O160        O  0.44892811  0.53424611  0.63037864    -0.81300
C161        C  0.42491705  0.56948212  0.57222491     0.92500
C162        C  0.36992985  0.59342849  0.64185757     0.92400
Mg163      Mg  0.44495831  0.53908414  0.71272235     1.58000
O164        O  0.47673555  0.54735359  0.74190136    -0.81200
O165        O  0.41215922  0.52554082  0.68553073    -0.75500
O166        O  0.41139443  0.57299144  0.58817817    -0.81300
O167        O  0.40562798  0.63338650  0.72587196    -0.83000
O168        O  0.44414723  0.57874524  0.81625013    -0.81400
C169        C  0.40488558  0.53263083  0.66352863     0.86800
O170        O  0.43462999  0.55545389  0.74682048    -0.88500
O171        O  0.46024839  0.56953556  0.68570346    -0.88600
O172        O  0.48121644  0.59461995  0.72070501    -0.75700
Mg173      Mg  0.39675455  0.56675860  0.63902344     1.58000
O174        O  0.43832439  0.56465578  0.58560917    -0.83000
H175        H  0.36988901  0.56013502  0.73261040    -0.06800
O176        O  0.44408065  0.60294981  0.75085112    -0.88300
H177        H  0.47226613  0.63191061  0.74624653    -0.06600
H178        H  0.40893012  0.52707621  0.76237448    -0.06800
C179        C  0.45537479  0.62139881  0.73841682     0.86800
C180        C  0.38216386  0.56788832  0.71408025     0.87400
C181        C  0.41608878  0.54474830  0.75909610     0.87400
H182        H  0.49107583  0.59351338  0.67557182    -0.06700
O183        O  0.45381759  0.60175675  0.63796021    -0.75800
Mg184      Mg  0.46073453  0.58563444  0.76696467     1.58000
H185        H  0.44717978  0.62686602  0.64105492    -0.06800
C186        C  0.40829159  0.63652986  0.75569654     0.92400
O187        O  0.42162710  0.59260694  0.81937277    -0.83000
C188        C  0.43240900  0.58449198  0.83244849     0.92500
O189        O  0.37513053  0.58150466  0.62498022    -0.83000
Mg190      Mg  0.44943277  0.56700659  0.63700528     1.58200
O191        O  0.41307253  0.62446115  0.77307628    -0.81300
O192        O  0.45519511  0.52177680  0.67575986    -0.83000
O193        O  0.18593027  0.60434854  0.05495920    -0.88600
C194        C  0.17059139  0.56315921  0.97940487     0.87400
Mg195      Mg  0.17984015  0.59295447  0.10286326     1.58100
O196        O  0.13595872  0.58551613  0.98725167    -0.88300
O197        O  0.17740284  0.62365504  0.02254519    -0.75700
C198        C  0.07408296  0.51799036  0.10518303     0.92500
O199        O  0.18305151  0.55720615  0.04975658    -0.75500
O200        O  0.09259573  0.52362570  0.11805150    -0.83000
Mg201      Mg  0.20168660  0.59144620  0.02543939     1.58000
C202        C  0.06853829  0.54598149  0.97935886     0.92400
O203        O  0.22232879  0.62513563  0.00193551    -0.81200
H204        H  0.13178593  0.61184466  0.98702373    -0.06600
C205        C  0.11050805  0.52378253  0.02731177     0.87300
O206        O  0.14892837  0.59713354  0.10321403    -0.75800
O207        O  0.17619332  0.58138348  0.99155259    -0.88500
O208        O  0.08612952  0.55048068  0.96426489    -0.81300
C209        C  0.14640330  0.57724698  0.90663808     0.92500
C210        C  0.22242324  0.63650722  0.97824239     0.92400
Mg211      Mg  0.09515315  0.55580474  0.04702314     1.58000
O212        O  0.07258502  0.52421635  0.07713751    -0.81200
O213        O  0.11305963  0.58844693  0.01959228    -0.75500
O214        O  0.16266487  0.59168572  0.92305609    -0.81300
O215        O  0.22919620  0.60093527  0.05994374    -0.83000
O216        O  0.13664158  0.55788384  0.15102729    -0.81400
C217        C  0.12697097  0.59577191  0.99703767     0.86800
O218        O  0.12213021  0.56713183  0.08113880    -0.88500
O219        O  0.11092719  0.54111691  0.01977426    -0.88600
O220        O  0.11654624  0.52123560  0.05474538    -0.75700
Mg221      Mg  0.16952792  0.60624398  0.97386386     1.58000
O222        O  0.12819748  0.56295158  0.91943328    -0.83000
H223        H  0.18750906  0.63268654  0.06813041    -0.06800
O224        O  0.16110834  0.55961346  0.08496588    -0.88300
H225        H  0.16335118  0.53226482  0.07990698    -0.06600
H226        H  0.11755900  0.59142956  0.09788963    -0.06800
C227        C  0.16898964  0.54906603  0.07224256     0.86800
C228        C  0.18407180  0.62077821  0.04932027     0.87400
C229        C  0.12888726  0.58531542  0.09426156     0.87400
H230        H  0.10538366  0.51067264  0.00988245    -0.06700
O231        O  0.15058029  0.54948351  0.97258344    -0.75800
Mg232      Mg  0.12753577  0.54176257  0.10102307     1.58000
H233        H  0.18292336  0.55830914  0.97595950    -0.06800
C234        C  0.22904359  0.59627390  0.08911781     0.92400
O235        O  0.17264064  0.58216759  0.15413322    -0.83000
C236        C  0.15390169  0.57043661  0.16729686     0.92500
O237        O  0.20536799  0.63026006  0.96086277    -0.83000
Mg238      Mg  0.11913390  0.55177070  0.97098352     1.58200
O239        O  0.21205830  0.59062848  0.10658877    -0.81300
O240        O  0.06749504  0.54488789  0.00972421    -0.83000
O241        O  0.18622478  0.60194017  0.55355803    -0.88600
C242        C  0.16933109  0.55963577  0.47925090     0.87400
Mg243      Mg  0.18095369  0.59128980  0.60184085     1.58100
O244        O  0.13505482  0.58235393  0.48838157    -0.88300
O245        O  0.17754903  0.62113686  0.52123377    -0.75700
C246        C  0.07478022  0.51509868  0.60770729     0.92500
O247        O  0.18345755  0.55482817  0.54945336    -0.75500
O248        O  0.09336713  0.52093573  0.62066893    -0.83000
Mg249      Mg  0.20151351  0.58863909  0.52380851     1.58000
C250        C  0.06717317  0.54255894  0.48367325     0.92400
O251        O  0.22168431  0.62174765  0.49893851    -0.81200
H252        H  0.13113236  0.60883647  0.48878103    -0.06600
C253        C  0.11029455  0.52093560  0.52956259     0.87300
O254        O  0.14993643  0.59515388  0.60307133    -0.75800
O255        O  0.17534288  0.57809670  0.49087988    -0.88500
O256        O  0.08438570  0.54675360  0.46776676    -0.81300
C257        C  0.14319939  0.57274108  0.40742564     0.92500
C258        C  0.22164669  0.63301169  0.47522198     0.92400
Mg259      Mg  0.09529053  0.55317333  0.54978027     1.58000
O260        O  0.07334856  0.52171419  0.57994465    -0.81200
O261        O  0.11287054  0.58562211  0.52182976    -0.75500
O262        O  0.16003767  0.58742706  0.42272840    -0.81300
O263        O  0.22982636  0.59908150  0.55718682    -0.83000
O264        O  0.13862574  0.55663256  0.65167362    -0.81400
C265        C  0.12638383  0.59277231  0.49876632     0.86800
O266        O  0.12273523  0.56467050  0.58269708    -0.88500
O267        O  0.11055527  0.53821197  0.52211384    -0.88600
O268        O  0.11686424  0.51859198  0.55670524    -0.75700
Mg269      Mg  0.16842625  0.60288351  0.47317185     1.58000
O270        O  0.12550656  0.55862745  0.42147438    -0.83000
H271        H  0.18866759  0.63073108  0.56632307    -0.06800
O272        O  0.16199379  0.55753115  0.58523880    -0.88300
H273        H  0.16445602  0.53028069  0.58057359    -0.06600
H274        H  0.11839204  0.58915187  0.59922594    -0.06800
C275        C  0.16980330  0.54693038  0.57246584     0.86800
C276        C  0.18462622  0.61849545  0.54779920     0.87400
C277        C  0.12970474  0.58306071  0.59524325     0.87400
H278        H  0.10488243  0.50771537  0.51225604    -0.06700
O279        O  0.14914010  0.54595425  0.47346067    -0.75800
Mg280      Mg  0.12851822  0.53957585  0.60248918     1.58000
H281        H  0.18148796  0.55460569  0.47535867    -0.06800
C282        C  0.23038543  0.59541668  0.58660836     0.92400
O283        O  0.17461402  0.58128005  0.65356314    -0.83000
C284        C  0.15608701  0.56951963  0.66733710     0.92500
O285        O  0.20429549  0.62688195  0.45847965    -0.83000
Mg286      Mg  0.11768189  0.54827155  0.47317256     1.58200
O287        O  0.21370008  0.58989302  0.60469510    -0.81300
O288        O  0.06686037  0.54204387  0.51403325    -0.83000
O289        O  0.81508393  0.39769277  0.30194929    -0.88600
C290        C  0.83240540  0.44069976  0.22827019     0.87400
Mg291      Mg  0.82027304  0.40774846  0.35073548     1.58100
O292        O  0.86583689  0.41694740  0.23654572    -0.88300
O293        O  0.82292333  0.37829955  0.26863070    -0.75700
C294        C  0.92671225  0.48349084  0.35685053     0.92500
O295        O  0.81855597  0.44514491  0.29928147    -0.75500
O296        O  0.90823544  0.47749435  0.37032209    -0.83000
Mg297      Mg  0.80023592  0.41169421  0.27262791     1.58000
C298        C  0.93364966  0.45638604  0.23183174     0.92400
O299        O  0.78016578  0.37902405  0.24694376    -0.81200
H300        H  0.86945535  0.39027670  0.23621627    -0.06600
C301        C  0.89115644  0.47800279  0.27950140     0.87300
O302        O  0.85105576  0.40342859  0.35157669    -0.75800
O303        O  0.82627961  0.42212441  0.23943775    -0.88500
O304        O  0.91605266  0.45150353  0.21654669    -0.81300
C305        C  0.85833915  0.42759021  0.15569901     0.92500
C306        C  0.77977868  0.36746055  0.22329140     0.92400
Mg307      Mg  0.90584917  0.44544319  0.29831231     1.58000
O308        O  0.92782600  0.47648065  0.32918829    -0.81200
O309        O  0.88797606  0.41323876  0.26953337    -0.75500
O310        O  0.84172714  0.41237626  0.17064944    -0.81300
O311        O  0.77185602  0.40118043  0.30609467    -0.83000
O312        O  0.86279208  0.44151284  0.40125766    -0.81400
C313        C  0.87436725  0.40631349  0.24654173     0.86800
O314        O  0.87850248  0.43381941  0.33156698    -0.88500
O315        O  0.89060811  0.46065749  0.27152298    -0.88600
O316        O  0.88476972  0.48026803  0.30685945    -0.75700
Mg317      Mg  0.83258260  0.39693996  0.22090424     1.58000
O318        O  0.87580609  0.44197063  0.16998489    -0.83000
H319        H  0.81182289  0.36840585  0.31361897    -0.06800
O320        O  0.83954395  0.44155525  0.33493052    -0.88300
H321        H  0.83754407  0.46910611  0.33127427    -0.06600
H322        H  0.88242992  0.40896647  0.34743163    -0.06800
C323        C  0.83203355  0.45253123  0.32257537     0.86800
C324        C  0.81615439  0.38091865  0.29550754     0.87400
C325        C  0.87130716  0.41531422  0.34373357     0.87400
H326        H  0.89667885  0.49136736  0.26249403    -0.06700
O327        O  0.85263488  0.45436962  0.22287080    -0.75800
Mg328      Mg  0.87301848  0.45898186  0.35224732     1.58000
H329        H  0.82032765  0.44585297  0.22459763    -0.06800
C330        C  0.77103561  0.40404562  0.33575802     0.92400
O331        O  0.82658650  0.41757533  0.40287101    -0.83000
C332        C  0.84518243  0.42883247  0.41677065     0.92500
O333        O  0.79667199  0.37367756  0.20550817    -0.83000
Mg334      Mg  0.88354098  0.45122397  0.22227186     1.58200
O335        O  0.78762264  0.40926304  0.35391290    -0.81300
O336        O  0.93431410  0.45717897  0.26220423    -0.83000
O337        O  0.81465246  0.39813721  0.80399622    -0.88600
C338        C  0.83164101  0.43970052  0.72860184     0.87400
Mg339      Mg  0.82038856  0.40946484  0.85223787     1.58100
O340        O  0.86512415  0.41606328  0.73708302    -0.88300
O341        O  0.82291829  0.37850191  0.77168596    -0.75700
C342        C  0.92726491  0.48409064  0.85410291     0.92500
O343        O  0.81848066  0.44574086  0.79857444    -0.75500
O344        O  0.90899349  0.47855488  0.86788239    -0.83000
Mg345      Mg  0.79977434  0.41163667  0.77369932     1.58000
C346        C  0.93263678  0.45452874  0.73018290     0.92400
O347        O  0.77889674  0.37816898  0.74955935    -0.81200
H348        H  0.86835060  0.38916453  0.73738799    -0.06600
C349        C  0.89126124  0.47784272  0.77727290     0.87300
O350        O  0.85118344  0.40509952  0.85335182    -0.75800
O351        O  0.82558708  0.42131536  0.74042166    -0.88500
O352        O  0.91509677  0.45005197  0.71500726    -0.81300
C353        C  0.85592957  0.42529367  0.65616759     0.92500
C354        C  0.77880487  0.36666425  0.72597442     0.92400
Mg355      Mg  0.90550331  0.44511990  0.79736078     1.58000
O356        O  0.92807185  0.47676765  0.82655974    -0.81200
O357        O  0.88717854  0.41238411  0.77019532    -0.75500
O358        O  0.83973659  0.41035952  0.67210579    -0.81300
O359        O  0.77196560  0.40226421  0.80728076    -0.83000
O360        O  0.86385491  0.44387491  0.90017243    -0.81400
C361        C  0.87352736  0.40537324  0.74729643     0.86800
O362        O  0.87840191  0.43455162  0.83103835    -0.88500
O363        O  0.89046776  0.46026582  0.76998364    -0.88600
O364        O  0.88505313  0.48067656  0.80444688    -0.75700
Mg365      Mg  0.83174919  0.39590827  0.72296724     1.58000
O366        O  0.87385091  0.43975442  0.66943004    -0.83000
H367        H  0.81232818  0.36948460  0.81707914    -0.06800
O368        O  0.83970406  0.44289745  0.83455200    -0.88300
H369        H  0.83791610  0.47047426  0.82929492    -0.06600
H370        H  0.88234837  0.41012227  0.84870244    -0.06800
C371        C  0.83220236  0.45366031  0.82151957     0.86800
C372        C  0.81617822  0.38150509  0.79836346     0.87400
C373        C  0.87128549  0.41648462  0.84453407     0.87400
H374        H  0.89680176  0.49090898  0.75976630    -0.06700
O375        O  0.85179867  0.45318859  0.72244268    -0.75800
Mg376      Mg  0.87355956  0.46034294  0.85069332     1.58000
H377        H  0.81957655  0.44487965  0.72500019    -0.06800
C378        C  0.77067663  0.40490366  0.83687033     0.92400
O379        O  0.82757832  0.42068021  0.90385544    -0.83000
C380        C  0.84660680  0.43174762  0.91668573     0.92500
O381        O  0.79598014  0.37250626  0.70905267    -0.83000
Mg382      Mg  0.88264497  0.44995901  0.72125681     1.58200
O383        O  0.78722515  0.41049130  0.85535879    -0.81300
O384        O  0.93347758  0.45552516  0.76056616    -0.83000
O385        O  0.60427979  0.18428771  0.11588740    -0.88600
C386        C  0.56605499  0.16637441  0.19490863     0.87400
Mg387      Mg  0.59122679  0.17841004  0.06878291     1.58100
O388        O  0.59081194  0.13434285  0.18136030    -0.88300
O389        O  0.62612372  0.17742002  0.14543337    -0.75700
C390        C  0.51858590  0.07129250  0.06713711     0.92500
O391        O  0.55638903  0.17872461  0.12617922    -0.75500
O392        O  0.52307827  0.08955972  0.05427510    -0.83000
Mg393      Mg  0.59125624  0.19844930  0.14810555     1.58000
C394        C  0.55337073  0.06596355  0.18744160     0.92400
O395        O  0.62511559  0.22019960  0.16923391    -0.81200
H396        H  0.61781973  0.13155396  0.17731005    -0.06600
C397        C  0.52730164  0.10686448  0.14630152     0.87300
O398        O  0.59707627  0.14855118  0.06524011    -0.75800
O399        O  0.58381533  0.17289519  0.18091605    -0.88500
O400        O  0.55862353  0.08339381  0.20366721    -0.81300
C401        C  0.58439781  0.14289177  0.26369140     0.92500
C402        C  0.63802382  0.22163504  0.19148319     0.92400
Mg403      Mg  0.55958407  0.09349934  0.12139599     1.58000
O404        O  0.52720886  0.07059476  0.09361351    -0.81200
O405        O  0.59322322  0.11234383  0.14644672    -0.75500
O406        O  0.59772352  0.15982527  0.24725402    -0.81300
O407        O  0.59846047  0.22614206  0.11529894    -0.83000
O408        O  0.55585740  0.13496264  0.02075099    -0.81400
C409        C  0.60119302  0.12617226  0.16917326     0.86800
O410        O  0.56853499  0.12058293  0.08819425    -0.88500
O411        O  0.54525610  0.10802281  0.15168427    -0.88600
O412        O  0.52320199  0.11274681  0.11972912    -0.75700
Mg413      Mg  0.61062092  0.16821292  0.19539613     1.58000
O414        O  0.57048383  0.12455560  0.25068894    -0.83000
H415        H  0.63284808  0.18795246  0.09966081    -0.06800
O416        O  0.55881634  0.15813123  0.08859263    -0.88300
H417        H  0.53089953  0.15867691  0.09701193    -0.06600
H418        H  0.59300561  0.11761883  0.06844032    -0.06800
C419        C  0.54805372  0.16499615  0.10326898     0.86800
C420        C  0.62157441  0.18368242  0.11950985     0.87400
C421        C  0.58631442  0.12829017  0.07370842     0.87400
H422        H  0.51496217  0.10117546  0.16491509    -0.06700
O423        O  0.55345269  0.14609927  0.20166016    -0.75800
Mg424      Mg  0.54152213  0.12470617  0.07180255     1.58000
H425        H  0.56062429  0.17809017  0.20012689    -0.06800
C426        C  0.59194264  0.22599458  0.08717244     0.92400
O427        O  0.57879369  0.17136804  0.01805156    -0.83000
C428        C  0.56733475  0.15260783  0.00458462     0.92500
O429        O  0.63369296  0.20484981  0.20864997    -0.83000
Mg430      Mg  0.55772295  0.11575299  0.19982608     1.58200
O431        O  0.58674974  0.20957826  0.06854134    -0.81300
O432        O  0.55059356  0.06537050  0.15732084    -0.83000
O433        O  0.60738045  0.18606130  0.61786304    -0.88600
C434        C  0.56445924  0.17000739  0.69102931     0.87400
Mg435      Mg  0.59739751  0.18069156  0.56924140     1.58100
O436        O  0.58707350  0.13548726  0.68365254    -0.88300
O437        O  0.62628087  0.17798914  0.65169080    -0.75700
C438        C  0.51972332  0.07486143  0.56244826     0.92500
O439        O  0.56060894  0.18383301  0.62020382    -0.75500
O440        O  0.52620355  0.09365036  0.54974575    -0.83000
Mg441      Mg  0.59411736  0.20188157  0.64647169     1.58000
C442        C  0.54655838  0.06740045  0.68815478     0.92400
O443        O  0.62734061  0.22164461  0.67138600    -0.81200
H444        H  0.61340424  0.13137763  0.68324850    -0.06600
C445        C  0.52627626  0.11107198  0.64061853     0.87300
O446        O  0.60100741  0.14947509  0.56896541    -0.75800
O447        O  0.58294954  0.17585343  0.67984493    -0.88500
O448        O  0.55163257  0.08500590  0.70380287    -0.81300
C449        C  0.57607555  0.14427068  0.76434992     0.92500
C450        C  0.63794160  0.22161399  0.69596191     0.92400
Mg451      Mg  0.55781664  0.09510032  0.62153248     1.58000
O452        O  0.52645658  0.07311252  0.59006004    -0.81200
O453        O  0.59004398  0.11287788  0.65040266    -0.75500
O454        O  0.59085214  0.16097675  0.74901381    -0.81300
O455        O  0.60478148  0.23010153  0.61248926    -0.83000
O456        O  0.56295186  0.13835688  0.51856889    -0.81400
C457        C  0.59736102  0.12665512  0.67328485     0.86800
O458        O  0.57001903  0.12236886  0.58820803    -0.88500
O459        O  0.54328712  0.11103517  0.64860405    -0.88600
O460        O  0.52427439  0.11755684  0.61321714    -0.75700
Mg461      Mg  0.60723494  0.16900876  0.69919744     1.58000
O462        O  0.56259438  0.12614733  0.75042796    -0.83000
H463        H  0.63638646  0.18859674  0.60656485    -0.06800
O464        O  0.56361849  0.16211021  0.58502050    -0.88300
H465        H  0.53645564  0.16473241  0.58858548    -0.06600
H466        H  0.59458278  0.11774468  0.57310790    -0.06800
C467        C  0.55296973  0.17007442  0.59719726     0.86800
C468        C  0.62389539  0.18464375  0.62458527     0.87400
C469        C  0.58859315  0.12920772  0.57650811     0.87400
H470        H  0.51298576  0.10597439  0.65764782    -0.06700
O471        O  0.55071757  0.14983749  0.69701717    -0.75800
Mg472      Mg  0.54549146  0.12872135  0.56768953     1.58000
H473        H  0.55949726  0.18227575  0.69444188    -0.06800
C474        C  0.60090069  0.23017962  0.58300782     0.92400
O475        O  0.58811504  0.17423201  0.51720135    -0.83000
C476        C  0.57649150  0.15572014  0.50320308     0.92500
O477        O  0.63056840  0.20493302  0.71444070    -0.83000
Mg478      Mg  0.55295378  0.11824157  0.69800059     1.58200
O479        O  0.59578691  0.21327177  0.56552757    -0.81300
O480        O  0.54584664  0.06684495  0.65778793    -0.83000
O481        O  0.39663015  0.81325824  0.36533391    -0.88600
C482        C  0.43677448  0.83125819  0.44205872     0.87400
Mg483      Mg  0.40878987  0.81918660  0.31767691     1.58100
O484        O  0.41233531  0.86389593  0.43147608    -0.88300
O485        O  0.37588777  0.82079445  0.39644294    -0.75700
C486        C  0.48245617  0.92706360  0.31612690     0.92500
O487        O  0.44443491  0.81848151  0.37282550    -0.75500
O488        O  0.47792968  0.90897789  0.30232690    -0.83000
Mg489      Mg  0.40998452  0.79887051  0.39644761     1.58000
C490        C  0.45100629  0.93241679  0.43833205     0.92400
O491        O  0.37594764  0.77757334  0.41887402    -0.81200
H492        H  0.38522823  0.86664720  0.42957861    -0.06600
C493        C  0.47478140  0.89103789  0.39345244     0.87300
O494        O  0.40327447  0.84932652  0.31566598    -0.75800
O495        O  0.41858797  0.82474333  0.42935405    -0.88500
O496        O  0.44591248  0.91481637  0.45389381    -0.81300
C497        C  0.42093942  0.85510391  0.51302364     0.92500
C498        C  0.36386380  0.77715680  0.44184170     0.92400
Mg499      Mg  0.44198335  0.90461782  0.37130518     1.58000
O500        O  0.47365168  0.92735037  0.34263493    -0.81200
O501        O  0.40895525  0.88583112  0.39768335    -0.75500
O502        O  0.40692878  0.83850517  0.49663861    -0.81300
O503        O  0.40217593  0.77095720  0.36325241    -0.83000
O504        O  0.44360452  0.86276051  0.26851969    -0.81400
C505        C  0.40163570  0.87205783  0.42044269     0.86800
O506        O  0.43238118  0.87753038  0.33743846    -0.88500
O507        O  0.45696360  0.88989847  0.39987178    -0.88600
O508        O  0.47827624  0.88504503  0.36651357    -0.75700
Mg509      Mg  0.39266886  0.83017371  0.44567718     1.58000
O510        O  0.43465313  0.87350662  0.50006072    -0.83000
H511        H  0.36781797  0.80990030  0.35092282    -0.06800
O512        O  0.44171685  0.83945020  0.33612004    -0.88300
H513        H  0.46956422  0.83851168  0.34316486    -0.06600
H514        H  0.40733565  0.88023884  0.31939498    -0.06800
C515        C  0.45254368  0.83234906  0.35004940     0.86800
C516        C  0.37959996  0.81419109  0.37010323     0.87400
C517        C  0.41421734  0.86965189  0.32394391     0.87400
H518        H  0.48751027  0.89674167  0.41150844    -0.06700
O519        O  0.44968419  0.85154669  0.44850336    -0.75800
Mg520      Mg  0.45903360  0.87320046  0.31932222     1.58000
H521        H  0.44228292  0.81950358  0.44634682    -0.06800
C522        C  0.40773324  0.77094509  0.33454296     0.92400
O523        O  0.42026491  0.82637941  0.26641794    -0.83000
C524        C  0.43147993  0.84502960  0.25265073     0.92500
O525        O  0.36967595  0.79399543  0.45967871    -0.83000
Mg526      Mg  0.44588010  0.88216562  0.44846137     1.58200
O527        O  0.41250704  0.78734265  0.31607798    -0.81300
O528        O  0.45199106  0.93295612  0.40794068    -0.83000
O529        O  0.39386106  0.81483915  0.86736536    -0.88600
C530        C  0.43652588  0.83363220  0.94193331     0.87400
Mg531      Mg  0.40392407  0.81949245  0.81889586     1.58100
O532        O  0.41309946  0.86713064  0.93156577    -0.88300
O533        O  0.37485948  0.82398361  0.89957814    -0.75700
C534        C  0.48089303  0.92527342  0.81073974     0.92500
O535        O  0.44127694  0.81803299  0.87175420    -0.75500
O536        O  0.47490559  0.90639557  0.79861973    -0.83000
Mg537      Mg  0.40777307  0.80030816  0.89763604     1.58000
C538        C  0.45159283  0.93511969  0.93342377     0.92400
O539        O  0.37469656  0.78084734  0.92227286    -0.81200
H540        H  0.38662168  0.87098444  0.93020288    -0.06600
C541        C  0.47408788  0.89096307  0.89073375     0.87300
O542        O  0.40011254  0.85054970  0.81711774    -0.75800
O543        O  0.41817306  0.82723415  0.92977587    -0.88500
O544        O  0.44666845  0.91809367  0.95040552    -0.81300
C545        C  0.42330421  0.85968090  0.01333398     0.92500
C546        C  0.36309385  0.78108220  0.94539927     0.92400
Mg547      Mg  0.44239848  0.90601333  0.86872992     1.58000
O548        O  0.47382295  0.92730711  0.83789941    -0.81200
O549        O  0.40994972  0.88884014  0.89703455    -0.75500
O550        O  0.40909600  0.84270183  0.99772999    -0.81300
O551        O  0.39799570  0.77120149  0.86481817    -0.83000
O552        O  0.43914626  0.86113338  0.76841713    -0.81400
C553        C  0.40269098  0.87559119  0.92044785     0.86800
O554        O  0.43074303  0.87798442  0.83672997    -0.88500
O555        O  0.45711366  0.89137371  0.89786858    -0.88600
O556        O  0.47623676  0.88378252  0.86389946    -0.75700
Mg557      Mg  0.39320776  0.83385416  0.94752926     1.58000
O558        O  0.43649737  0.87795496  0.99955446    -0.83000
H559        H  0.36499746  0.81214959  0.85483607    -0.06800
O560        O  0.43768061  0.83855523  0.83533502    -0.88300
H561        H  0.46507887  0.83641127  0.83938316    -0.06600
H562        H  0.40627927  0.88224493  0.82020550    -0.06800
C563        C  0.44857865  0.83109074  0.84803748     0.86800
C564        C  0.37735246  0.81650181  0.87319574     0.87400
C565        C  0.41232255  0.87090899  0.82439182     0.87400
H566        H  0.48722755  0.89633326  0.90808678    -0.06700
O567        O  0.44974273  0.85394678  0.94808870    -0.75800
Mg568      Mg  0.45573576  0.87170222  0.81770331     1.58000
H569        H  0.44181521  0.82171174  0.94626707    -0.06800
C570        C  0.40113991  0.77040850  0.83516239     0.92400
O571        O  0.41345583  0.82538832  0.76661626    -0.83000
C572        C  0.42590518  0.84377636  0.75278069     0.92500
O573        O  0.36964830  0.79813370  0.96305003    -0.83000
Mg574      Mg  0.44680487  0.88519993  0.94710302     1.58200
O575        O  0.40533632  0.78672649  0.81693938    -0.81300
O576        O  0.45376808  0.93508995  0.90326864    -0.83000
C577        C  0.42120542  0.85300681  0.54822563    -0.20100
C578        C  0.41465613  0.83240811  0.56307949     0.36100
C579        C  0.41487146  0.83122630  0.59649688    -0.26100
C580        C  0.42167159  0.85015209  0.61545583     0.02500
C581        C  0.42835681  0.87073596  0.60069954     0.27300
C582        C  0.42819694  0.87197223  0.56729082    -0.25200
N583        N  0.40831731  0.81286496  0.54425455    -0.82600
H584        H  0.41013020  0.81552153  0.60786743     0.13100
C585        C  0.42241522  0.84829284  0.65068162     0.02500
N586        N  0.43508479  0.89025804  0.61974540    -0.81200
H587        H  0.43321274  0.88779309  0.55609826     0.18000
C588        C  0.44258160  0.86107869  0.66664587    -0.26000
C589        C  0.44416926  0.85969947  0.69982142     0.36000
C590        C  0.42511258  0.84516795  0.71755766    -0.20000
C591        C  0.40497684  0.83211670  0.70148480    -0.25300
C592        C  0.40338429  0.83369089  0.66827701     0.27400
H593        H  0.45724508  0.87200696  0.65302883     0.13100
N594        N  0.46516862  0.87271217  0.71543811    -0.82600
H595        H  0.39030863  0.82104761  0.71498321     0.18000
N596        N  0.38247694  0.82078928  0.65239544    -0.81200
H597        H  0.47742084  0.88269610  0.69906270     0.33600
H598        H  0.46978672  0.86173024  0.72478282     0.38100
H599        H  0.37011985  0.81088606  0.66869086     0.33600
H600        H  0.37801418  0.83183792  0.64285296     0.30300
H601        H  0.43959637  0.90407386  0.60528650     0.33600
H602        H  0.42134059  0.88780865  0.63294353     0.30300
H603        H  0.42226846  0.81542650  0.53149792     0.38100
H604        H  0.40379838  0.79910902  0.55884900     0.33600
C605        C  0.42471160  0.85775195  0.04845083    -0.20100
C606        C  0.43036566  0.87580596  0.06923293     0.36100
C607        C  0.43201465  0.87316981  0.10219646    -0.26100
C608        C  0.42814983  0.85290796  0.11494180     0.02500
C609        C  0.42250715  0.83488048  0.09418424     0.27300
C610        C  0.42061910  0.83742471  0.06129903    -0.25200
N611        N  0.43396904  0.89659563  0.05693684    -0.82600
H612        H  0.43600423  0.88690657  0.11815576     0.13100
C613        C  0.42947025  0.85064377  0.15011556     0.02500
N614        N  0.41902423  0.81414731  0.10654362    -0.81200
H615        H  0.41642883  0.82356737  0.04548219     0.18000
C616        C  0.41100419  0.83414838  0.16643255    -0.26000
C617        C  0.41134675  0.83157757  0.19963484     0.36000
C618        C  0.43052531  0.84624962  0.21724605    -0.20000
C619        C  0.44897062  0.86282844  0.20081771    -0.25300
C620        C  0.44875411  0.86497779  0.16748883     0.27400
H621        H  0.39613274  0.82327179  0.15313919     0.13100
N622        N  0.39196009  0.81463206  0.21547609    -0.82600
H623        H  0.46377332  0.87400915  0.21401423     0.18000
N624        N  0.46810661  0.88155227  0.15116702    -0.81200
H625        H  0.37874798  0.80678039  0.19951095     0.33600
H626        H  0.39547151  0.80242382  0.22290969     0.38100
H627        H  0.48087830  0.89077880  0.16732172     0.33600
H628        H  0.47367721  0.87330755  0.13632210     0.30300
H629        H  0.41495095  0.80256090  0.08821757     0.33600
H630        H  0.43404798  0.81697854  0.11609331     0.30300
H631        H  0.41897223  0.89386699  0.04741806     0.38100
H632        H  0.43808697  0.90816400  0.07530164     0.33600
C633        C  0.54027307  0.04684265  0.70634550    -0.20100
C634        C  0.52876926  0.04267580  0.73556685     0.36100
C635        C  0.52253606  0.02290749  0.75196971    -0.26100
C636        C  0.52761374  0.00713642  0.74023531     0.02500
C637        C  0.53928240  0.01132023  0.71119425     0.27300
C638        C  0.54527695  0.03103585  0.69436874    -0.25200
N639        N  0.52279269  0.05819233  0.74807453    -0.82600
H640        H  0.51301227  0.01946562  0.77370961     0.13100
C641        C  0.51896936  0.98578269  0.75778812     0.02500
N642        N  0.54504473  0.99560143  0.69899125    -0.81200
H643        H  0.55411965  0.03420905  0.67203213     0.18000
C644        C  0.50561913  0.96574852  0.74169033    -0.26000
C645        C  0.49392060  0.94559634  0.75826684     0.36000
C646        C  0.49543798  0.94548752  0.79191747    -0.20000
C647        C  0.50967752  0.96537001  0.80781149    -0.25300
C648        C  0.52171747  0.98542279  0.79106912     0.27400
H649        H  0.50328020  0.96597903  0.71623514     0.13100
N650        N  0.47965411  0.92551167  0.74109065    -0.82600
H651        H  0.51117213  0.96531482  0.83347625     0.18000
N652        N  0.53640320  0.00555410  0.80778337    -0.81200
H653        H  0.48094028  0.92838373  0.71655356     0.33600
H654        H  0.46332406  0.92058158  0.74729191     0.38100
H655        H  0.53649131  0.00251918  0.83212930     0.33600
H656        H  0.55243057  0.01100383  0.79944920     0.30300
H657        H  0.55355249  0.00112836  0.67742592     0.33600
H658        H  0.55600264  0.99481248  0.71515595     0.30300
H659        H  0.51137529  0.05857591  0.73238292     0.38100
H660        H  0.51473173  0.05280190  0.76997934     0.33600
C661        C  0.50483053  0.05447332  0.54380693    -0.20100
C662        C  0.50648394  0.05394380  0.51016623     0.36100
C663        C  0.49431931  0.03371161  0.49378188    -0.26100
C664        C  0.48014435  0.01399502  0.50987038     0.02500
C665        C  0.47744359  0.01471015  0.54312731     0.27300
C666        C  0.49002551  0.03483755  0.55978042    -0.25200
N667        N  0.52151444  0.07360300  0.49281705    -0.82600
H668        H  0.49662858  0.03315715  0.46836135     0.13100
C669        C  0.47066058  0.99250729  0.49221359     0.02500
N670        N  0.46222353  0.99487002  0.55989478    -0.81200
H671        H  0.48845692  0.03514507  0.58540941     0.18000
C672        C  0.47575516  0.97658761  0.50298468    -0.26000
C673        C  0.46947770  0.95705044  0.48574696     0.36000
C674        C  0.45746345  0.95299735  0.45695840    -0.20000
C675        C  0.45228205  0.96890575  0.44605514    -0.25300
C676        C  0.45861939  0.98855922  0.46353368     0.27400
H677        H  0.48552826  0.97985339  0.52444164     0.13100
N678        N  0.47608340  0.94170915  0.49683200    -0.82600
H679        H  0.44314447  0.96591430  0.42402701     0.18000
N680        N  0.45291671  0.00451624  0.45231052    -0.81200
H681        H  0.48457478  0.94699931  0.51846125     0.33600
H682        H  0.48730169  0.94174367  0.48030142     0.38100
H683        H  0.44410362  0.99918770  0.43093567     0.33600
H684        H  0.44224751  0.00531666  0.46903806     0.30300
H685        H  0.46220423  0.99812756  0.58419499     0.33600
H686        H  0.44632798  0.98991343  0.55143629     0.30300
H687        H  0.51488524  0.08412169  0.49289242     0.38100
H688        H  0.52229770  0.06987327  0.46890041     0.33600
C689        C  0.56786876  0.15134259  0.96923140    -0.20100
C690        C  0.55002415  0.13463329  0.95157234     0.36100
C691        C  0.55179671  0.13388248  0.91824571    -0.26100
C692        C  0.57103763  0.14931431  0.90207948     0.02500
C693        C  0.58881505  0.16604265  0.91970340     0.27300
C694        C  0.58692618  0.16702602  0.95292604    -0.25200
N695        N  0.53006242  0.11867564  0.96738419    -0.82600
H696        H  0.53798900  0.12127400  0.90471003     0.13100
C697        C  0.57228195  0.14782974  0.86672800     0.02500
N698        N  0.60890149  0.18172247  0.90387234    -0.81200
H699        H  0.60072676  0.17979850  0.96628160     0.18000
C700        C  0.57750888  0.16647280  0.84791497    -0.26000
C701        C  0.57889330  0.16576894  0.81453618     0.36000
C702        C  0.57467728  0.14585758  0.79948753    -0.20000
C703        C  0.56912001  0.12712363  0.81826816    -0.25300
C704        C  0.56820820  0.12798151  0.85168486     0.27400
H705        H  0.58031062  0.18161453  0.85934974     0.13100
N706        N  0.58416208  0.18508151  0.79589260    -0.82600
H707        H  0.56602432  0.11187559  0.80684355     0.18000
N708        N  0.56353807  0.10888288  0.87043425    -0.81200
H709        H  0.58697921  0.19836875  0.81060037     0.33600
H710        H  0.57027984  0.18137279  0.78205631     0.38100
H711        H  0.56090527  0.09563135  0.85578543     0.33600
H712        H  0.57761942  0.11297963  0.88403101     0.30300
H713        H  0.62033393  0.19299554  0.92017953     0.33600
H714        H  0.61600212  0.17290876  0.89419616     0.30300
H715        H  0.52275178  0.12725114  0.97720338     0.38100
H716        H  0.51870371  0.10737081  0.95103302     0.33600
C717        C  0.57853778  0.15424687  0.46811159    -0.20100
C718        C  0.59812946  0.16902043  0.45152936     0.36100
C719        C  0.59915277  0.16696381  0.41833447    -0.26100
C720        C  0.58102054  0.15068309  0.40110833     0.02500
C721        C  0.56144015  0.13596634  0.41762426     0.27300
C722        C  0.56053095  0.13771836  0.45089504    -0.25200
N723        N  0.61707619  0.18582504  0.46840334    -0.82600
H724        H  0.61432915  0.17798936  0.40582094     0.13100
C725        C  0.58282883  0.14911475  0.36588074     0.02500
N726        N  0.54241527  0.11950909  0.40049220    -0.81200
H727        H  0.54544284  0.12639055  0.46336375     0.18000
C728        C  0.57764035  0.12868066  0.35212454    -0.26000
C729        C  0.57840782  0.12627023  0.31896883     0.36000
C730        C  0.58475456  0.14481007  0.29898054    -0.20000
C731        C  0.59079334  0.16544836  0.31284778    -0.25300
C732        C  0.58964078  0.16775228  0.34596467     0.27400
H733        H  0.57298600  0.11450503  0.36740193     0.13100
N734        N  0.57294749  0.10510829  0.30562808    -0.82600
H735        H  0.59567199  0.17971952  0.29767498     0.18000
N736        N  0.59484998  0.18883184  0.35934027    -0.81200
H737        H  0.56837770  0.09317891  0.32350676     0.33600
H738        H  0.58730019  0.10680537  0.29514879     0.38100
H739        H  0.59967846  0.20084366  0.34153294     0.33600
H740        H  0.58034521  0.18706277  0.36936639     0.30300
H741        H  0.52941474  0.10993479  0.41611509     0.33600
H742        H  0.53696236  0.12785364  0.38570962     0.30300
H743        H  0.62291091  0.17778203  0.48311307     0.38100
H744        H  0.62991518  0.19553879  0.45262881     0.33600
C745        C  0.54877965  0.04546183  0.20482516    -0.20100
C746        C  0.55777261  0.04635753  0.23541908     0.36100
C747        C  0.55000573  0.02674955  0.25325865    -0.26100
C748        C  0.53346121  0.00632560  0.24130295     0.02500
C749        C  0.52497879  0.00523029  0.21048841     0.27300
C750        C  0.53299446  0.02473173  0.19236739    -0.25200
N751        N  0.57428219  0.06721406  0.24866349    -0.82600
H752        H  0.55621385  0.02749513  0.27713311     0.13100
C753        C  0.52262846  0.98696198  0.26292936     0.02500
N754        N  0.50708998  0.98460626  0.19868602    -0.81200
H755        H  0.52580577  0.02389869  0.16920161     0.18000
C756        C  0.50599457  0.98540230  0.28319382    -0.26000
C757        C  0.49322775  0.96636424  0.30163241     0.36000
C758        C  0.49730600  0.94843240  0.29990667    -0.20000
C759        C  0.51468602  0.95045591  0.28056425    -0.25300
C760        C  0.52759250  0.96970117  0.26231103     0.27400
H761        H  0.50241560  0.99883987  0.28367823     0.13100
N762        N  0.47549955  0.96484814  0.32093026    -0.82600
H763        H  0.51807574  0.93690853  0.27951243     0.18000
N764        N  0.54587404  0.97192945  0.24367719    -0.81200
H765        H  0.47505746  0.97961087  0.31999599     0.33600
H766        H  0.46061062  0.95254789  0.31104050     0.38100
H767        H  0.54757053  0.95794642  0.24637458     0.33600
H768        H  0.54232956  0.97253147  0.21968844     0.30300
H769        H  0.50203589  0.98679212  0.17622762     0.33600
H770        H  0.51302135  0.97364516  0.19555944     0.30300
H771        H  0.58843418  0.07320971  0.23446653     0.38100
H772        H  0.57882522  0.06503148  0.27149597     0.33600
C773        C  0.45614844  0.95584252  0.94980750    -0.20100
C774        C  0.44489155  0.95536855  0.97805048     0.36100
C775        C  0.45216481  0.97498761  0.99568077    -0.26100
C776        C  0.47049928  0.99494036  0.98579341     0.02500
C777        C  0.48124373  0.99566526  0.95700527     0.27300
C778        C  0.47367217  0.97615561  0.93897621    -0.25200
N779        N  0.42652740  0.93486765  0.98916201    -0.82600
H780        H  0.44419065  0.97454198  0.01802730     0.13100
C781        C  0.48061822  0.01374716  0.00839990     0.02500
N782        N  0.50081945  0.01575470  0.94751207    -0.81200
H783        H  0.48245179  0.97652266  0.91750040     0.18000
C784        C  0.49447329  0.01334838  0.03212173    -0.26000
C785        C  0.50629164  0.03147088  0.05263303     0.36000
C786        C  0.50398770  0.05043619  0.04949900    -0.20000
C787        C  0.48916360  0.05027452  0.02659612    -0.25300
C788        C  0.47732790  0.03203249  0.00611909     0.27400
H789        H  0.49667603  0.99905777  0.03384007     0.13100
N790        N  0.52131613  0.03095686  0.07554778    -0.82600
H791        H  0.48709390  0.06460847  0.02427892     0.18000
N792        N  0.46179555  0.03187161  0.98350885    -0.81200
H793        H  0.52039416  0.01551302  0.07541529     0.33600
H794        H  0.53738901  0.04252594  0.06836788     0.38100
H795        H  0.46101695  0.04642476  0.98540441     0.33600
H796        H  0.46761545  0.03180441  0.96064576     0.30300
H797        H  0.50735730  0.01320510  0.92658618     0.33600
H798        H  0.49624260  0.02751153  0.94209342     0.30300
H799        H  0.41386002  0.92966453  0.97231350     0.38100
H800        H  0.42030127  0.93732046  0.01047241     0.33600
C801        C  0.75844073  0.34532071  0.71952914    -0.20100
C802        C  0.73732878  0.34216146  0.72705045     0.36100
C803        C  0.71870070  0.32084101  0.72497028    -0.26100
C804        C  0.72067639  0.30270296  0.71512599     0.02500
C805        C  0.74162635  0.30590410  0.70665693     0.27300
C806        C  0.76031365  0.32723573  0.70880263    -0.25200
N807        N  0.73485174  0.36064147  0.73643042    -0.82600
H808        H  0.70246503  0.31836746  0.73058572     0.13100
C809        C  0.70034664  0.28080949  0.71168302     0.02500
N810        N  0.74383859  0.28741809  0.69641429    -0.81200
H811        H  0.77650323  0.32957884  0.70323863     0.18000
C812        C  0.69457324  0.27125337  0.68136754    -0.26000
C813        C  0.67451696  0.25166928  0.67626082     0.36000
C814        C  0.65978396  0.24136288  0.70184955    -0.20000
C815        C  0.66591242  0.25034531  0.73254674    -0.25300
C816        C  0.68610910  0.27013324  0.73770677     0.27400
H817        H  0.70547787  0.27933721  0.66134903     0.13100
N818        N  0.66922626  0.24212816  0.64500164    -0.82600
H819        H  0.65469438  0.24228302  0.75225066     0.18000
N820        N  0.69214200  0.27958123  0.76906471    -0.81200
H821        H  0.66931033  0.25385419  0.62943255     0.33600
H822        H  0.68170108  0.23892171  0.63788160     0.38100
H823        H  0.67984251  0.26978109  0.78549712     0.33600
H824        H  0.70640645  0.27928889  0.77577451     0.30300
H825        H  0.76033922  0.29258195  0.69098378     0.33600
H826        H  0.73946325  0.27645306  0.71557341     0.30300
H827        H  0.73965605  0.37155139  0.71714968     0.38100
H828        H  0.71821802  0.35546609  0.74081482     0.33600
C829        C  0.65877705  0.24328994  0.19640820    -0.20100
C830        C  0.66300994  0.26268527  0.17943448     0.36100
C831        C  0.68361013  0.28215132  0.18259818    -0.26100
C832        C  0.69996694  0.28301281  0.20266640     0.02500
C833        C  0.69578947  0.26400133  0.22004410     0.27300
C834        C  0.67527175  0.24435302  0.21673673    -0.25200
N835        N  0.64644434  0.26275847  0.15916738    -0.82600
H836        H  0.68676877  0.29698778  0.16992113     0.13100
C837        C  0.72072196  0.30447169  0.20710859     0.02500
N838        N  0.71248624  0.26473986  0.24084778    -0.81200
H839        H  0.67233732  0.22971714  0.22973316     0.18000
C840        C  0.72564452  0.31389374  0.23750979    -0.26000
C841        C  0.74485231  0.33423197  0.24327935     0.36000
C842        C  0.75930348  0.34588582  0.21769078    -0.20000
C843        C  0.75433444  0.33642018  0.18709904    -0.25300
C844        C  0.73513734  0.31577429  0.18154958     0.27400
H845        H  0.71441441  0.30519294  0.25696775     0.13100
N846        N  0.74990991  0.34276318  0.27526252    -0.82600
H847        H  0.76539324  0.34515533  0.16750887     0.18000
N848        N  0.73024777  0.30619109  0.15019791    -0.81200
H849        H  0.73738612  0.33233829  0.29099518     0.33600
H850        H  0.76418727  0.34263011  0.28238200     0.38100
H851        H  0.74244090  0.31661857  0.13405726     0.33600
H852        H  0.73084836  0.29151422  0.15111758     0.30300
H853        H  0.70681280  0.24943963  0.25203958     0.33600
H854        H  0.72598005  0.26749229  0.22676753     0.30300
H855        H  0.63351101  0.26096230  0.17375961     0.38100
H856        H  0.65257272  0.27802187  0.14766356     0.33600
C857        C  0.84633011  0.42745815  0.45198012    -0.20100
C858        C  0.86558133  0.43023461  0.46738664     0.36100
C859        C  0.86607281  0.42934164  0.50080697    -0.26100
C860        C  0.84780347  0.42571798  0.51913679     0.02500
C861        C  0.82862043  0.42305069  0.50398439     0.27300
C862        C  0.82799196  0.42371861  0.47052848    -0.25200
N863        N  0.88446705  0.43370037  0.44910607    -0.82600
H864        H  0.88077639  0.43145855  0.51270830     0.13100
C865        C  0.84932312  0.42531507  0.55427422     0.02500
N866        N  0.81018935  0.42043793  0.52264017    -0.81200
H867        H  0.81329445  0.42182843  0.45890750     0.18000
C868        C  0.85924445  0.44540685  0.57110149    -0.26000
C869        C  0.86163081  0.44583639  0.60439417     0.36000
C870        C  0.85378999  0.42569042  0.62112136    -0.20000
C871        C  0.84378648  0.40558444  0.60417194    -0.25300
C872        C  0.84176724  0.40521534  0.57082458     0.27400
H873        H  0.86517648  0.46079245  0.55813791     0.13100
N874        N  0.87170842  0.46659635  0.62128347    -0.82600
H875        H  0.83800138  0.39015249  0.61695059     0.18000
N876        N  0.83281623  0.38463695  0.55361363    -0.81200
H877        H  0.87670763  0.47982314  0.60545225     0.33600
H878        H  0.85960109  0.46661752  0.63591241     0.38100
H879        H  0.82863791  0.37146273  0.56925167     0.33600
H880        H  0.81808562  0.38161090  0.54283298     0.30300
H881        H  0.79760305  0.41927124  0.50786828     0.33600
H882        H  0.80358581  0.40538139  0.53478682     0.30300
H883        H  0.87974640  0.41929825  0.43583265     0.38100
H884        H  0.89731140  0.43572858  0.46407638     0.33600
C885        C  0.85730751  0.42831541  0.12056533    -0.20100
C886        C  0.86450383  0.44847914  0.10419776     0.36100
C887        C  0.86281921  0.44829432  0.07081691    -0.26100
C888        C  0.85425551  0.42842919  0.05360549     0.02500
C889        C  0.84765886  0.40837442  0.06977562     0.27300
C890        C  0.84899451  0.40847960  0.10318607    -0.25200
N891        N  0.87303289  0.46895596  0.12154991    -0.82600
H892        H  0.86797220  0.46364804  0.05812878     0.13100
C893        C  0.85203998  0.42889722  0.01862529     0.02500
N894        N  0.84007488  0.38811671  0.05216350    -0.81200
H895        H  0.84381365  0.39306882  0.11572953     0.18000
C896        C  0.86999430  0.43299774  0.99921218    -0.26000
C897        C  0.86861999  0.43388741  0.96588953     0.36000
C898        C  0.84879885  0.43067315  0.95174998    -0.20000
C899        C  0.83082181  0.42649996  0.97143142    -0.25300
C900        C  0.83230312  0.42572213  0.00474422     0.27400
H901        H  0.88510947  0.43545080  0.01016486     0.13100
N902        N  0.88718168  0.43777019  0.94644380    -0.82600
H903        H  0.81567695  0.42421174  0.96082150     0.18000
N904        N  0.81407437  0.42228812  0.02460739    -0.81200
H905        H  0.90051837  0.44013703  0.96057525     0.33600
H906        H  0.88244038  0.42341563  0.93304081     0.38100
H907        H  0.80094892  0.42074616  0.01073430     0.33600
H908        H  0.80824723  0.40717586  0.03638196     0.30300
H909        H  0.83635903  0.37494663  0.06759089     0.33600
H910        H  0.82527193  0.38437303  0.04087157     0.30300
H911        H  0.86015009  0.46795497  0.13547856     0.38100
H912        H  0.87769512  0.48224520  0.10594381     0.33600
C913        C  0.24223436  0.65419415  0.46825255    -0.20100
C914        C  0.26322907  0.65757145  0.47742811     0.36100
C915        C  0.28205056  0.67865402  0.47408604    -0.26100
C916        C  0.28046000  0.69635938  0.46151329     0.02500
C917        C  0.25971596  0.69308667  0.45185522     0.27300
C918        C  0.24077398  0.67196915  0.45516116    -0.25200
N919        N  0.26541834  0.63957333  0.48994044    -0.82600
H920        H  0.29815455  0.68127999  0.48093914     0.13100
C921        C  0.30102478  0.71785424  0.45691218     0.02500
N922        N  0.25800000  0.71128527  0.43910310    -0.81200
H923        H  0.22473807  0.66958214  0.44848415     0.18000
C924        C  0.30966730  0.72379230  0.42618421    -0.26000
C925        C  0.33003712  0.74312057  0.42076127     0.36000
C926        C  0.34216254  0.75674594  0.44684773    -0.20000
C927        C  0.33311468  0.75103872  0.47759670    -0.25300
C928        C  0.31265129  0.73161839  0.48288819     0.27400
H929        H  0.30054129  0.71311049  0.40637835     0.13100
N930        N  0.33827621  0.74905944  0.38878118    -0.82600
H931        H  0.34218236  0.76154908  0.49756090     0.18000
N932        N  0.30369273  0.72565885  0.51447545    -0.81200
H933        H  0.32753573  0.73710336  0.37254817     0.33600
H934        H  0.33846561  0.76376012  0.38315256     0.38100
H935        H  0.31431513  0.73745554  0.53097592     0.33600
H936        H  0.28893161  0.72606496  0.51496299     0.30300
H937        H  0.24158329  0.70614843  0.43315230     0.33600
H938        H  0.26248671  0.72314167  0.45714083     0.30300
H939        H  0.26109356  0.62781658  0.47179864     0.38100
H940        H  0.28188664  0.64492133  0.49586985     0.33600
C941        C  0.95273928  0.45967352  0.71137972    -0.20100
C942        C  0.95599736  0.46881324  0.68036820     0.36100
C943        C  0.97553709  0.47435536  0.66375150    -0.26100
C944        C  0.99199074  0.47092335  0.67700114     0.02500
C945        C  0.98854187  0.46125321  0.70755612     0.27300
C946        C  0.96909392  0.45598222  0.72455596    -0.25200
N947        N  0.93986035  0.47322786  0.66615548    -0.82600
H948        H  0.97833471  0.48227446  0.64070847     0.13100
C949        C  0.01344914  0.47954807  0.65969321     0.02500
N950        N  0.00482997  0.45687878  0.72120981    -0.81200
H951        H  0.96663719  0.44883514  0.74812080     0.18000
C952        C  0.03317197  0.49415585  0.67553830    -0.26000
C953        C  0.05349112  0.50512834  0.65934172     0.36000
C954        C  0.05419168  0.50154943  0.62628490    -0.20000
C955        C  0.03457101  0.48649012  0.61053311    -0.25300
C956        C  0.01427370  0.47522924  0.62695366     0.27400
H957        H  0.03257181  0.49792196  0.70042199     0.13100
N958        N  0.07318330  0.52076730  0.67611535    -0.82600
H959        H  0.03505301  0.48367850  0.58524389     0.18000
N960        N  0.99444287  0.45966473  0.61044018    -0.81200
H961        H  0.06990407  0.52111347  0.70033317     0.33600
H962        H  0.07802782  0.53656226  0.66723627     0.38100
H963        H  0.99782894  0.45846033  0.58650774     0.33600
H964        H  0.98893316  0.44405310  0.62052180     0.30300
H965        H  0.99986196  0.44980996  0.74379202     0.33600
H966        H  0.00569052  0.44506411  0.70685820     0.30300
H967        H  0.93961496  0.48580359  0.67944010     0.38100
H968        H  0.94451487  0.47936576  0.64304119     0.33600
C969        C  0.04676174  0.53680882  0.46562609    -0.20100
C970        C  0.03195892  0.54397303  0.47497616     0.36100
C971        C  0.01272975  0.53763916  0.45676312    -0.26100
C972        C  0.00781044  0.52391619  0.42982181     0.02500
C973        C  0.02259300  0.51661001  0.42078945     0.27300
C974        C  0.04204661  0.52349036  0.43837829    -0.25200
N975        N  0.03662783  0.55783403  0.50258462    -0.82600
H976        H  0.00151028  0.54340661  0.46359668     0.13100
C977        C  0.98686703  0.51655948  0.41172610     0.02500
N978        N  0.01752284  0.50175563  0.39424168    -0.81200
H979        H  0.05329357  0.51778575  0.43135474     0.18000
C980        C  0.98770102  0.51923658  0.37850546    -0.26000
C981        C  0.96828780  0.50964666  0.35997322     0.36000
C982        C  0.94747382  0.49744204  0.37506594    -0.20000
C983        C  0.94664191  0.49635307  0.40852177    -0.25300
C984        C  0.96605697  0.50544714  0.42695066     0.27400
H985        H  0.00366779  0.52826142  0.36688101     0.13100
N986        N  0.96970530  0.51189201  0.32591574    -0.82600
H987        H  0.93078200  0.48707505  0.42035580     0.18000
N988        N  0.96467479  0.50248234  0.46090735    -0.81200
H989        H  0.98621994  0.52106418  0.31861181     0.33600
H990        H  0.96219303  0.52103317  0.31938205     0.38100
H991        H  0.94816554  0.49404777  0.46837097     0.33600
H992        H  0.97125030  0.49234395  0.46655948     0.30300
H993        H  0.03012704  0.49803759  0.39066510     0.33600
H994        H  0.00327870  0.48682938  0.40004003     0.30300
H995        H  0.05105742  0.57287994  0.49794477     0.38100
H996        H  0.02403540  0.56155142  0.50629256     0.33600
C997        C  0.24264483  0.65806792  0.97200076    -0.20100
C998        C  0.26373003  0.66222842  0.98205645     0.36100
C999        C  0.28205826  0.68365944  0.97918164    -0.26100
C1000       C  0.27986000  0.70085186  0.96598635     0.02500
C1001       C  0.25906691  0.69675555  0.95520328     0.27300
C1002       C  0.24060381  0.67535104  0.95829467    -0.25200
N1003       N  0.26653684  0.64465462  0.99475611    -0.82600
H1004       H  0.29827982  0.68692575  0.98664953     0.13100
C1005       C  0.30001842  0.72249816  0.96102509     0.02500
N1006       N  0.25685300  0.71436930  0.94129238    -0.81200
H1007       H  0.22448121  0.67231909  0.95076795     0.18000
C1008       C  0.30900199  0.72768423  0.93045678    -0.26000
C1009       C  0.32929838  0.74693816  0.92479165     0.36000
C1010       C  0.34111347  0.76114817  0.95059413    -0.20000
C1011       C  0.33156291  0.75633631  0.98108920    -0.25300
C1012       C  0.31104038  0.73704451  0.98654241     0.27400
H1013       H  0.30022594  0.71642904  0.91099368     0.13100
N1014       N  0.33781010  0.75214545  0.89284317    -0.82600
H1015       H  0.34029893  0.76737707  0.00075037     0.18000
N1016       N  0.30144953  0.73196005  0.01783336    -0.81200
H1017       H  0.32729772  0.73976653  0.87692448     0.33600
H1018       H  0.33791295  0.76662447  0.88607168     0.38100
H1019       H  0.31165899  0.74431277  0.03399914     0.33600
H1020       H  0.28660893  0.73219434  0.01681762     0.30300
H1021       H  0.24045513  0.70860983  0.93447573     0.33600
H1022       H  0.26058581  0.72634266  0.95893397     0.30300
H1023       H  0.26284878  0.63305097  0.97656752     0.38100
H1024       H  0.28305030  0.65056371  0.00106807     0.33600
C1025       C  0.05388390  0.50525068  0.12461669    -0.20100
C1026       C  0.05366986  0.51093513  0.15694131     0.36100
C1027       C  0.03395307  0.49983023  0.17445497    -0.26100
C1028       C  0.01439848  0.48317004  0.16052398     0.02500
C1029       C  0.01476420  0.47698251  0.12853860     0.27300
C1030       C  0.03445301  0.48831433  0.11076217    -0.25200
N1031       N  0.07321970  0.52869202  0.17149226    -0.82600
H1032       H  0.03358680  0.50496084  0.19870314     0.13100
C1033       C  0.99327978  0.47440555  0.17852647     0.02500
N1034       N  0.99504974  0.45939440  0.11419431    -0.81200
H1035       H  0.03465314  0.48395241  0.08604445     0.18000
C1036       C  0.97606453  0.47633418  0.16482499    -0.26000
C1037       C  0.95654097  0.47045725  0.18159859     0.36000
C1038       C  0.95397040  0.46223960  0.21313161    -0.20000
C1039       C  0.97122434  0.46022683  0.22688386    -0.25300
C1040       C  0.99080659  0.46611072  0.20983887     0.27400
H1041       H  0.97822879  0.48332337  0.14118525     0.13100
N1042       N  0.93969679  0.47359617  0.16693282    -0.82600
H1043       H  0.96939973  0.45396662  0.25093731     0.18000
N1044       N  0.00820026  0.46376843  0.22418383    -0.81200
H1045       H  0.94393673  0.47913786  0.14348738     0.33600
H1046       H  0.93900533  0.48623856  0.17938425     0.38100
H1047       H  0.00385108  0.45753430  0.24730113     0.33600
H1048       H  0.00986583  0.45195460  0.21099323     0.30300
H1049       H  0.99804350  0.45693290  0.09057195     0.33600
H1050       H  0.99096146  0.44478164  0.12642596     0.30300
H1051       H  0.07674643  0.54342341  0.16006479     0.38100
H1052       H  0.07034238  0.53058251  0.19541195     0.33600
C1053       C  0.14856905  0.57733944  0.87152661    -0.20100
C1054       C  0.16868126  0.58218870  0.85669498     0.36100
C1055       C  0.16980970  0.58192507  0.82326953    -0.26100
C1056       C  0.15136204  0.57713998  0.80436662     0.02500
C1057       C  0.13147013  0.57289673  0.81917830     0.27300
C1058       C  0.13018356  0.57269486  0.85257139    -0.25200
N1059       N  0.18770183  0.58682223  0.87557142    -0.82600
H1060       H  0.18500902  0.58497431  0.81188400     0.13100
C1061       C  0.15274749  0.57557355  0.76919440     0.02500
N1062       N  0.11272330  0.56899531  0.80019542    -0.81200
H1063       H  0.11485242  0.56931119  0.86388739     0.18000
C1064       C  0.13761835  0.55583280  0.75375661    -0.26000
C1065       C  0.13842095  0.55333585  0.72067325     0.36000
C1066       C  0.15479735  0.57104604  0.70248273    -0.20000
C1067       C  0.17011073  0.59072473  0.71806080    -0.25300
C1068       C  0.16914484  0.59324359  0.75114800     0.27400
H1069       H  0.12528456  0.54214353  0.76774157     0.13100
N1070       N  0.12290970  0.53273513  0.70568959    -0.82600
H1071       H  0.18262437  0.60440764  0.70427342     0.18000
N1072       N  0.18453868  0.61375983  0.76642482    -0.81200
H1073       H  0.11175753  0.52161803  0.72236091     0.33600
H1074       H  0.13185343  0.52554675  0.69681837     0.38100
H1075       H  0.19558366  0.62505516  0.74982356     0.33600
H1076       H  0.17549194  0.62073284  0.77566019     0.30300
H1077       H  0.09938008  0.56614133  0.81470407     0.33600
H1078       H  0.11716997  0.58352180  0.78748162     0.30300
H1079       H  0.18384724  0.57243524  0.88825988     0.38100
H1080       H  0.20117774  0.59021497  0.86099019     0.33600
C1081       C  0.14432040  0.57208426  0.37219390    -0.20100
C1082       C  0.12532393  0.56509260  0.35297539     0.36100
C1083       C  0.12720894  0.56458986  0.31970661    -0.26100
C1084       C  0.14757080  0.57070061  0.30513121     0.02500
C1085       C  0.16652776  0.57758699  0.32433953     0.27300
C1086       C  0.16474685  0.57847975  0.35758150    -0.25200
N1087       N  0.10428036  0.55896082  0.36718670    -0.82600
H1088       H  0.11275237  0.55973626  0.30497916     0.13100
C1089       C  0.14888645  0.57038551  0.26973241     0.02500
N1090       N  0.18745350  0.58337391  0.31003938    -0.81200
H1091       H  0.17931709  0.58372584  0.37222662     0.18000
C1092       C  0.16449718  0.58959873  0.25375330    -0.26000
C1093       C  0.16636162  0.59011283  0.22041585     0.36000
C1094       C  0.15210659  0.57099898  0.20248208    -0.20000
C1095       C  0.13609356  0.55194362  0.21842697    -0.25300
C1096       C  0.13452342  0.55132630  0.25183635     0.27400
H1097       H  0.17516123  0.60439052  0.26739907     0.13100
N1098       N  0.18244424  0.61010179  0.20475813    -0.82600
H1099       H  0.12514658  0.53723653  0.20481274     0.18000
N1100       N  0.11866516  0.53130999  0.26766995    -0.81200
H1101       H  0.19178338  0.62249612  0.22140028     0.33600
H1102       H  0.17380427  0.61588546  0.19126905     0.38100
H1103       H  0.10931124  0.51885779  0.25110989     0.33600
H1104       H  0.12748009  0.52568530  0.28106708     0.30300
H1105       H  0.19974249  0.58817363  0.32741673     0.33600
H1106       H  0.18579893  0.56909041  0.29924412     0.30300
H1107       H  0.10564454  0.57314849  0.37789646     0.38100
H1108       H  0.09198417  0.55395174  0.34977552     0.33600
C1109       C  0.94816675  0.49788544  0.87181810    -0.20100
C1110       C  0.96828311  0.51226020  0.85626636     0.36100
C1111       C  0.98812323  0.52245802  0.87387641    -0.26100
C1112       C  0.98833500  0.51816165  0.90652608     0.02500
C1113       C  0.96811848  0.50423074  0.92217072     0.27300
C1114       C  0.94826512  0.49463243  0.90479350    -0.25200
N1115       N  0.96852419  0.51623875  0.82267089    -0.82600
H1116       H  0.00359190  0.53341196  0.86195465     0.13100
C1117       C  0.00981787  0.52709247  0.92372100     0.02500
N1118       N  0.96790422  0.49908181  0.95535293    -0.81200
H1119       H  0.93290018  0.48341730  0.91677046     0.18000
C1120       C  0.01322422  0.53887857  0.95234739    -0.26000
C1121       C  0.03237510  0.54558230  0.97084638     0.36000
C1122       C  0.04859253  0.54064216  0.96027020    -0.20000
C1123       C  0.04564793  0.52981294  0.93087957    -0.25300
C1124       C  0.02636804  0.52273025  0.91273130     0.27400
H1125       H  0.00070628  0.54258222  0.96049001     0.13100
N1126       N  0.03543760  0.55744903  0.00015495    -0.82600
H1127       H  0.05807901  0.52601912  0.92259629     0.18000
N1128       N  0.02324315  0.51049636  0.88372292    -0.81200
H1129       H  0.02192201  0.55963795  0.00459067     0.33600
H1130       H  0.04920918  0.57329374  0.99731291     0.38100
H1131       H  0.03703660  0.50884695  0.87888759     0.33600
H1132       H  0.00989801  0.49446870  0.88717320     0.30300
H1133       H  0.95171331  0.48862879  0.96325498     0.33600
H1134       H  0.97624320  0.49021063  0.95774430     0.30300
H1135       H  0.95949414  0.52428793  0.81891012     0.38100
H1136       H  0.98465584  0.52705146  0.81485980     0.33600
C1137       C  0.40546327  0.65475686  0.76961550    -0.20100
C1138       C  0.41397910  0.66449340  0.79972597     0.36100
C1139       C  0.41190657  0.68268776  0.80995772    -0.26100
C1140       C  0.40125972  0.69118352  0.79109252     0.02500
C1141       C  0.39210618  0.68103801  0.76167177     0.27300
C1142       C  0.39440481  0.66314195  0.75122296    -0.25200
N1143       N  0.42527197  0.65646080  0.81941473    -0.82600
H1144       H  0.41891080  0.69052256  0.83261390     0.13100
C1145       C  0.40030072  0.71108113  0.80191739     0.02500
N1146       N  0.38048211  0.68897800  0.74248967    -0.81200
H1147       H  0.38741564  0.65568115  0.72838208     0.18000
C1148       C  0.41010026  0.73035458  0.78320040    -0.26000
C1149       C  0.41031743  0.74981064  0.79301991     0.36000
C1150       C  0.40026833  0.74997641  0.82223864    -0.20000
C1151       C  0.39004642  0.73040479  0.84055620    -0.25300
C1152       C  0.38988391  0.71101826  0.83066658     0.27400
H1153       H  0.41812320  0.73035728  0.76111384     0.13100
N1154       N  0.42121468  0.76945145  0.77374782    -0.82600
H1155       H  0.38210679  0.73017813  0.86282429     0.18000
N1156       N  0.37909271  0.69121868  0.84963062    -0.81200
H1157       H  0.42714400  0.76629845  0.75268069     0.33600
H1158       H  0.43511007  0.78120730  0.78632769     0.38100
H1159       H  0.37228435  0.69390750  0.87015721     0.33600
H1160       H  0.36585300  0.67914453  0.83633077     0.30300
H1161       H  0.37484128  0.67983719  0.72139102     0.33600
H1162       H  0.36642229  0.68619614  0.75514891     0.30300
H1163       H  0.41346666  0.64071525  0.82750541     0.38100
H1164       H  0.43168876  0.66634331  0.83974630     0.33600
C1165       C  0.35003202  0.59500050  0.63394508    -0.20100
C1166       C  0.34205699  0.59288269  0.60249838     0.36100
C1167       C  0.32272452  0.59392153  0.59686424    -0.26100
C1168       C  0.31143213  0.59743963  0.62186041     0.02500
C1169       C  0.31962180  0.59996354  0.65314423     0.27300
C1170       C  0.33873313  0.59863653  0.65885264    -0.25200
N1171       N  0.35372308  0.59002343  0.57639805    -0.82600
H1172       H  0.31638644  0.59196703  0.57282416     0.13100
C1173       C  0.29099445  0.59831315  0.61488337     0.02500
N1174       N  0.30856299  0.60399346  0.67896480    -0.81200
H1175       H  0.34474787  0.60029101  0.68304390     0.18000
C1176       C  0.27107022  0.58351592  0.63022327    -0.26000
C1177       C  0.25110778  0.58285296  0.62260546     0.36000
C1178       C  0.25112579  0.59729974  0.59907970    -0.20000
C1179       C  0.27124291  0.61259713  0.58459852    -0.25300
C1180       C  0.29115824  0.61338609  0.59242465     0.27400
H1181       H  0.27097691  0.57192322  0.64745071     0.13100
N1182       N  0.23078997  0.56700041  0.63773623    -0.82600
H1183       H  0.27138290  0.62387141  0.56674458     0.18000
N1184       N  0.31154305  0.62934199  0.57752419    -0.81200
H1185       H  0.23373891  0.55785599  0.65474830     0.33600
H1186       H  0.22067323  0.55570127  0.62034405     0.38100
H1187       H  0.30880035  0.63912532  0.56140636     0.33600
H1188       H  0.32189484  0.64002022  0.59530572     0.30300
H1189       H  0.31659967  0.60531311  0.70053417     0.33600
H1190       H  0.30978531  0.61937092  0.67497624     0.30300
H1191       H  0.36921004  0.60444047  0.57479842     0.38100
H1192       H  0.34559611  0.58864396  0.55489220     0.33600
C1193       C  0.40539195  0.65156619  0.27137114    -0.20100
C1194       C  0.38803960  0.65568558  0.26415816     0.36100
C1195       C  0.38915907  0.67531083  0.27498608    -0.26100
C1196       C  0.40749354  0.69122140  0.29229565     0.02500
C1197       C  0.42460823  0.68678449  0.30022889     0.27300
C1198       C  0.42317166  0.66682314  0.29010094    -0.25200
N1199       N  0.36937216  0.63991685  0.24572477    -0.82600
H1200       H  0.37568778  0.67828869  0.26971810     0.13100
C1201       C  0.40831729  0.71222548  0.30225413     0.02500
N1202       N  0.44369846  0.70283969  0.31766528    -0.81200
H1203       H  0.43654858  0.66370011  0.29540671     0.18000
C1204       C  0.41225453  0.71869218  0.33426933    -0.26000
C1205       C  0.41313347  0.73822931  0.34486046     0.36000
C1206       C  0.40885615  0.75124913  0.32322746    -0.20000
C1207       C  0.40514217  0.74494356  0.29106283    -0.25300
C1208       C  0.40500017  0.72568049  0.28029944     0.27400
H1209       H  0.41467141  0.70839770  0.35120974     0.13100
N1210       N  0.41868190  0.74501515  0.37751843    -0.82600
H1211       H  0.40209208  0.75492166  0.27433882     0.18000
N1212       N  0.40155425  0.71976520  0.24714990    -0.81200
H1213       H  0.42115254  0.73355017  0.39022112     0.33600
H1214       H  0.43383952  0.75988370  0.37761789     0.38100
H1215       H  0.39926176  0.73125946  0.23422263     0.33600
H1216       H  0.41601968  0.72067080  0.23847504     0.30300
H1217       H  0.45469395  0.69703063  0.32158411     0.33600
H1218       H  0.45202131  0.71698829  0.30346329     0.30300
H1219       H  0.36113112  0.62530072  0.25899121     0.38100
H1220       H  0.35812294  0.64546552  0.24226924     0.33600
C1221       C  0.34424236  0.58808311  0.13803880    -0.20100
C1222       C  0.33349555  0.59305461  0.16276345     0.36100
C1223       C  0.31380775  0.59316240  0.15623324    -0.26100
C1224       C  0.30421236  0.58783745  0.12594830     0.02500
C1225       C  0.31406124  0.58155733  0.10182372     0.27300
C1226       C  0.33402115  0.58188128  0.10802462    -0.25200
N1227       N  0.34244054  0.59786058  0.19449307    -0.82600
H1228       H  0.30607714  0.59780758  0.17473505     0.13100
C1229       C  0.28496120  0.59071941  0.11893594     0.02500
N1230       N  0.30379163  0.57506875  0.07102126    -0.81200
H1231       H  0.34174346  0.57752326  0.08917282     0.18000
C1232       C  0.28752236  0.60630147  0.09590398    -0.26000
C1233       C  0.26988592  0.60942518  0.08736179     0.36000
C1234       C  0.24894285  0.59640382  0.10191884    -0.20000
C1235       C  0.24668057  0.58160296  0.12629464    -0.25300
C1236       C  0.26451326  0.57858071  0.13490591     0.27400
H1237       H  0.30345133  0.61604994  0.08439596     0.13100
N1238       N  0.27316628  0.62568222  0.06369946    -0.82600
H1239       H  0.23071815  0.57161299  0.13757660     0.18000
N1240       N  0.26178275  0.56284787  0.15909098    -0.81200
H1241       H  0.28940892  0.63359640  0.05511492     0.33600
H1242       H  0.27100251  0.63788984  0.07483235     0.38100
H1243       H  0.24577742  0.55532059  0.16852077     0.33600
H1244       H  0.26348174  0.55028374  0.14819924     0.30300
H1245       H  0.31309980  0.57097915  0.05588282     0.33600
H1246       H  0.28848223  0.56061254  0.07401702     0.30300
H1247       H  0.34145452  0.58340916  0.20347057     0.38100
H1248       H  0.33276219  0.60155568  0.20948165     0.33600
C1249       C  0.42623711  0.57280542  0.03636164    -0.20100
C1250       C  0.44696801  0.58372183  0.02071302     0.36100
C1251       C  0.44767538  0.58533899  0.98735366    -0.26100
C1252       C  0.42815594  0.57615860  0.96944023     0.02500
C1253       C  0.40747037  0.56485065  0.98484993     0.27300
C1254       C  0.40670993  0.56356311  0.01826438    -0.25200
N1255       N  0.46719550  0.59334630  0.03874949    -0.82600
H1256       H  0.46348832  0.59387990  0.97521464     0.13100
C1257       C  0.42963255  0.57859695  0.93446980     0.02500
N1258       N  0.38740161  0.55410844  0.96645215    -0.81200
H1259       H  0.39083830  0.55481504  0.03020271     0.18000
C1260       C  0.43262473  0.56353409  0.91605505    -0.26000
C1261       C  0.43367226  0.56508596  0.88266027     0.36000
C1262       C  0.43158129  0.58207536  0.86753642    -0.20000
C1263       C  0.42891136  0.59731044  0.88623462    -0.25300
C1264       C  0.42820408  0.59591149  0.91958568     0.27400
H1265       H  0.43395534  0.55043073  0.92782811     0.13100
N1266       N  0.43651390  0.54931024  0.86415636    -0.82600
H1267       H  0.42776360  0.61061802  0.87479189     0.18000
N1268       N  0.42672230  0.61236514  0.93843896    -0.81200
H1269       H  0.43814042  0.53817819  0.87898136     0.33600
H1270       H  0.42205450  0.53996014  0.85090450     0.38100
H1271       H  0.42644774  0.62434775  0.92382110     0.33600
H1272       H  0.41162795  0.60459047  0.95053955     0.30300
H1273       H  0.37363712  0.54596848  0.98139010     0.33600
H1274       H  0.38574359  0.56633095  0.95453907     0.30300
H1275       H  0.46790411  0.60621595  0.05247617     0.38100
H1276       H  0.48092953  0.60053750  0.02361615     0.33600
C1277       C  0.42478307  0.57055027  0.53697383    -0.20100
C1278       C  0.42088997  0.58603994  0.52085502     0.36100
C1279       C  0.42095996  0.58634560  0.48736472    -0.26100
C1280       C  0.42468952  0.57142959  0.46962999     0.02500
C1281       C  0.42819307  0.55570476  0.48573590     0.27300
C1282       C  0.42848727  0.55562365  0.51919465    -0.25200
N1283       N  0.41739759  0.60172304  0.53848550    -0.82600
H1284       H  0.41851160  0.59856917  0.47497967     0.13100
C1285       C  0.42560607  0.57296537  0.43425734     0.02500
N1286       N  0.43121253  0.53974700  0.46802257    -0.81200
H1287       H  0.43120550  0.54354210  0.53149228     0.18000
C1288       C  0.44467223  0.57619221  0.41835862    -0.26000
C1289       C  0.44647258  0.57813535  0.38501825     0.36000
C1290       C  0.42897985  0.57751864  0.36711674    -0.20000
C1291       C  0.40989228  0.57427008  0.38319639    -0.25300
C1292       C  0.40790139  0.57168518  0.41643548     0.27400
H1293       H  0.45831234  0.57731445  0.43213231     0.13100
N1294       N  0.46628426  0.58140490  0.36961130    -0.82600
H1295       H  0.39628630  0.57346276  0.36971540     0.18000
N1296       N  0.38791094  0.56760404  0.43215808    -0.81200
H1297       H  0.47815268  0.58336265  0.38645586     0.33600
H1298       H  0.46222957  0.56682029  0.35724441     0.38100
H1299       H  0.37649119  0.56718629  0.41568672     0.33600
H1300       H  0.38072663  0.55180963  0.44232138     0.30300
H1301       H  0.43361293  0.52936276  0.48340097     0.33600
H1302       H  0.41652650  0.52965497  0.45562377     0.30300
H1303       H  0.43202395  0.61213785  0.55080697     0.38100
H1304       H  0.41463158  0.61183859  0.52305804     0.33600
C1305       C  0.58600431  0.34179540  0.03133025    -0.20100
C1306       C  0.60415165  0.33909632  0.02282151     0.36100
C1307       C  0.60366644  0.31920828  0.03024540    -0.26100
C1308       C  0.58581559  0.30223812  0.04676695     0.02500
C1309       C  0.56802342  0.30509265  0.05618751     0.27300
C1310       C  0.56827942  0.32481493  0.04835191    -0.25200
N1311       N  0.62324169  0.35668956  0.00735303    -0.82600
H1312       H  0.61755642  0.31712266  0.02387879     0.13100
C1313       C  0.58682995  0.28231256  0.05628426     0.02500
N1314       N  0.54974309  0.28787913  0.07356031    -0.81200
H1315       H  0.55434469  0.32672458  0.05505389     0.18000
C1316       C  0.58792701  0.27854671  0.08868244    -0.26000
C1317       C  0.58922891  0.26019738  0.09927714     0.36000
C1318       C  0.59001271  0.24536496  0.07671589    -0.20000
C1319       C  0.58876875  0.24915228  0.04411220    -0.25300
C1320       C  0.58714022  0.26748802  0.03368184     0.27400
H1321       H  0.58768457  0.29004344  0.10586940     0.13100
N1322       N  0.58943049  0.25653092  0.13294412    -0.82600
H1323       H  0.58918218  0.23787356  0.02671771     0.18000
N1324       N  0.58573885  0.27111180  0.00031228    -0.81200
H1325       H  0.58954183  0.26936821  0.14601774     0.33600
H1326       H  0.57459783  0.24212540  0.13854818     0.38100
H1327       H  0.58622593  0.25875327  0.98679537     0.33600
H1328       H  0.57027373  0.26959710  0.99620252     0.30300
H1329       H  0.53806149  0.29259972  0.07890280     0.33600
H1330       H  0.54187533  0.27400762  0.05866743     0.30300
H1331       H  0.63053688  0.37006480  0.02319827     0.38100
H1332       H  0.63506026  0.35198455  0.00304824     0.33600
C1333       C  0.64925455  0.39794027  0.89676162    -0.20100
C1334       C  0.65783722  0.38652299  0.91431366     0.36100
C1335       C  0.67777533  0.38792510  0.90486998    -0.26100
C1336       C  0.68905332  0.39984308  0.87781218     0.02500
C1337       C  0.68002562  0.41019280  0.85917392     0.27300
C1338       C  0.66020695  0.40917362  0.86884879    -0.25200
N1339       N  0.64626670  0.37341311  0.94161939    -0.82600
H1340       H  0.68450700  0.37948482  0.91851358     0.13100
C1341       C  0.70992194  0.40059064  0.86870599     0.02500
N1342       N  0.69123421  0.42197115  0.83080103    -0.81200
H1343       H  0.65371957  0.41778935  0.85511921     0.18000
C1344       C  0.71001772  0.38898041  0.84165326    -0.26000
C1345       C  0.72930968  0.38912671  0.83194437     0.36000
C1346       C  0.74930761  0.40183659  0.84920362    -0.20000
C1347       C  0.74891050  0.41275288  0.87714501    -0.25300
C1348       C  0.72935060  0.41218585  0.88712038     0.27400
H1349       H  0.69483784  0.37958085  0.82819487     0.13100
N1350       N  0.72854613  0.37626165  0.80467511    -0.82600
H1351       H  0.76401254  0.42230199  0.89067963     0.18000
N1352       N  0.72917592  0.42358188  0.91556728    -0.81200
H1353       H  0.71268526  0.36810376  0.79470521     0.33600
H1354       H  0.73169290  0.36389987  0.81261465     0.38100
H1355       H  0.74473574  0.43123091  0.92647112     0.33600
H1356       H  0.72614337  0.43625251  0.90886016     0.30300
H1357       H  0.68242895  0.42857839  0.81970401     0.33600
H1358       H  0.70648629  0.43542126  0.83764038     0.30300
H1359       H  0.65493301  0.36634324  0.95181213     0.38100
H1360       H  0.63117425  0.36024319  0.93366576     0.33600
C1361       C  0.54659360  0.49380528  0.87214265    -0.20100
C1362       C  0.53981376  0.50699729  0.88887727     0.36100
C1363       C  0.53208216  0.51919223  0.87184735    -0.26100
C1364       C  0.53042445  0.51816649  0.83841475     0.02500
C1365       C  0.53829878  0.50587641  0.82167206     0.27300
C1366       C  0.54658160  0.49417710  0.83867068    -0.25200
N1367       N  0.54056651  0.50780377  0.92307404    -0.82600
H1368       H  0.52674056  0.52913360  0.88480936     0.13100
C1369       C  0.51900912  0.52865948  0.82158933     0.02500
N1370       N  0.53699357  0.50448440  0.78752009    -0.81200
H1371       H  0.55185409  0.48420837  0.82561932     0.18000
C1372       C  0.52887058  0.54243726  0.79494357    -0.26000
C1373       C  0.51772884  0.55124406  0.77755366     0.36000
C1374       C  0.49667589  0.54686590  0.78764848    -0.20000
C1375       C  0.48714412  0.53379031  0.81475467    -0.25300
C1376       C  0.49775884  0.52421608  0.83133842     0.27400
H1377       H  0.54523726  0.54617696  0.78750704     0.13100
N1378       N  0.52767273  0.56458782  0.74977744    -0.82600
H1379       H  0.47084221  0.53027569  0.82225352     0.18000
N1380       N  0.48667382  0.50939620  0.85742833    -0.81200
H1381       H  0.54314541  0.56618010  0.74540558     0.33600
H1382       H  0.53049836  0.58052011  0.75463699     0.38100
H1383       H  0.47122471  0.50791357  0.86158564     0.33600
H1384       H  0.48365001  0.49365873  0.85073611     0.30300
H1385       H  0.54360600  0.49495278  0.77887590     0.33600
H1386       H  0.52023991  0.49611577  0.78126932     0.30300
H1387       H  0.55717442  0.51511190  0.92987058     0.38100
H1388       H  0.53479736  0.51806078  0.93171684     0.33600
C1389       C  0.45537361  0.50463863  0.12192114    -0.20100
C1390       C  0.46684255  0.51249196  0.09273324     0.36100
C1391       C  0.47154170  0.49861367  0.07420311    -0.26100
C1392       C  0.46500960  0.47692456  0.08374462     0.02500
C1393       C  0.45307975  0.46881699  0.11252196     0.27300
C1394       C  0.44863658  0.48286581  0.13151622    -0.25200
N1395       N  0.47444551  0.53486208  0.08245887    -0.82600
H1396       H  0.48123602  0.50514618  0.05269314     0.13100
C1397       C  0.47313117  0.46422503  0.06489991     0.02500
N1398       N  0.44556680  0.44640287  0.12232901    -0.81200
H1399       H  0.43969820  0.47674302  0.15369952     0.18000
C1400       C  0.48514779  0.45589400  0.08047265    -0.26000
C1401       C  0.49672277  0.44757131  0.06339952     0.36000
C1402       C  0.49720187  0.44850537  0.02956493    -0.20000
C1403       C  0.48380523  0.45534641  0.01403065    -0.25300
C1404       C  0.47156074  0.46290473  0.03132914     0.27400
H1405       H  0.48640425  0.45683006  0.10618739     0.13100
N1406       N  0.50858400  0.43893837  0.08054976    -0.82600
H1407       H  0.48346066  0.45557066  0.98826507     0.18000
N1408       N  0.45804156  0.46988375  0.01492247    -0.81200
H1409       H  0.50710361  0.44018351  0.10513308     0.33600
H1410       H  0.50101638  0.42199622  0.07540311     0.38100
H1411       H  0.45875231  0.46802006  0.99032492     0.33600
H1412       H  0.44162977  0.45925286  0.02174771     0.30300
H1413       H  0.43709710  0.44303840  0.14398012     0.33600
H1414       H  0.43414730  0.43586076  0.10538930     0.30300
H1415       H  0.48648569  0.54553065  0.09863898     0.38100
H1416       H  0.48221941  0.53785823  0.06027429     0.33600
C1417       C  0.59866694  0.34694681  0.52032230    -0.20100
C1418       C  0.58948062  0.33678447  0.54992277     0.36100
C1419       C  0.59065202  0.31799397  0.55938159    -0.26100
C1420       C  0.60102111  0.30935225  0.54020136     0.02500
C1421       C  0.61088985  0.31990453  0.51138128     0.27300
C1422       C  0.60952912  0.33843733  0.50169795    -0.25200
N1423       N  0.57842192  0.34501007  0.56982185    -0.82600
H1424       H  0.58326050  0.30987512  0.58170082     0.13100
C1425       C  0.60159073  0.28928610  0.55055575     0.02500
N1426       N  0.62226790  0.31171861  0.49206239    -0.81200
H1427       H  0.61701011  0.34624814  0.47926183     0.18000
C1428       C  0.59063111  0.26974834  0.53243040    -0.26000
C1429       C  0.59073198  0.25035471  0.54158340     0.36000
C1430       C  0.60199544  0.25053398  0.56971069    -0.20000
C1431       C  0.61327609  0.27037625  0.58737334    -0.25300
C1432       C  0.61323427  0.28968351  0.57806619     0.27400
H1433       H  0.58177795  0.26961608  0.51118071     0.13100
N1434       N  0.57879504  0.23043246  0.52301388    -0.82600
H1435       H  0.62212813  0.27085265  0.60879955     0.18000
N1436       N  0.62497005  0.30972877  0.59644608    -0.81200
H1437       H  0.57026793  0.23281016  0.50440773     0.33600
H1438       H  0.59046534  0.22729654  0.51229546     0.38100
H1439       H  0.63256472  0.30723302  0.61618656     0.33600
H1440       H  0.63768438  0.32154139  0.58217730     0.30300
H1441       H  0.62853500  0.32125816  0.47145209     0.33600
H1442       H  0.63592153  0.31370829  0.50503815     0.30300
H1443       H  0.59047279  0.36043653  0.57865639     0.38100
H1444       H  0.57146357  0.33480069  0.58967967     0.33600
C1445       C  0.65422534  0.40870513  0.38742533    -0.20100
C1446       C  0.66486725  0.40306910  0.41144529     0.36100
C1447       C  0.68377313  0.40176783  0.40385116    -0.26100
C1448       C  0.69266860  0.40639984  0.37312664     0.02500
C1449       C  0.68250684  0.41253976  0.34933399     0.27300
C1450       C  0.66337982  0.41359459  0.35669938    -0.25200
N1451       N  0.65669305  0.39895849  0.44361159    -0.82600
H1452       H  0.69168043  0.39712074  0.42203551     0.13100
C1453       C  0.71253519  0.40454829  0.36608371     0.02500
N1454       N  0.69172436  0.41773647  0.31780924    -0.81200
H1455       H  0.65549405  0.41807144  0.33827994     0.18000
C1456       C  0.71101370  0.38928573  0.34306179    -0.26000
C1457       C  0.72963963  0.38781980  0.33429358     0.36000
C1458       C  0.75037132  0.40216131  0.34862283    -0.20000
C1459       C  0.75158211  0.41647565  0.37308670    -0.25300
C1460       C  0.73286835  0.41790103  0.38186593     0.27400
H1461       H  0.69521576  0.37860304  0.33169176     0.13100
N1462       N  0.72760526  0.37188260  0.31077683    -0.82600
H1463       H  0.76739912  0.42740272  0.38421974     0.18000
N1464       N  0.73458336  0.43333944  0.40598925    -0.81200
H1465       H  0.71133062  0.36276774  0.30242804     0.33600
H1466       H  0.73103277  0.36059427  0.32208136     0.38100
H1467       H  0.75062847  0.44186845  0.41530214     0.33600
H1468       H  0.73179166  0.44518501  0.39507798     0.30300
H1469       H  0.68227716  0.42185340  0.30305661     0.33600
H1470       H  0.70740921  0.43189020  0.31946226     0.30300
H1471       H  0.65881002  0.41386815  0.45274671     0.38100
H1472       H  0.66609725  0.39456585  0.45799672     0.33600
C1473       C  0.57429419  0.41904966  0.62105614    -0.20100
C1474       C  0.59481856  0.42703146  0.63674622     0.36100
C1475       C  0.59569117  0.42829052  0.67016686    -0.26100
C1476       C  0.57649517  0.42159500  0.68833177     0.02500
C1477       C  0.55601674  0.41386524  0.67263224     0.27300
C1478       C  0.55519484  0.41299098  0.63915154    -0.25200
N1479       N  0.61474393  0.43408345  0.61867543    -0.82600
H1480       H  0.61145798  0.43460048  0.68217095     0.13100
C1481       C  0.57807966  0.42271762  0.72374769     0.02500
N1482       N  0.53606917  0.40645795  0.69077973    -0.81200
H1483       H  0.53944082  0.40681796  0.62715777     0.18000
C1484       C  0.57026734  0.43480622  0.74057825    -0.26000
C1485       C  0.57084147  0.43580097  0.77405905     0.36000
C1486       C  0.57995773  0.42476877  0.79132511    -0.20000
C1487       C  0.58813211  0.41299302  0.77418911    -0.25300
C1488       C  0.58718494  0.41175185  0.74075619     0.27400
H1489       H  0.56350883  0.44341919  0.72743479     0.13100
N1490       N  0.56207827  0.44790487  0.79031894    -0.82600
H1491       H  0.59524569  0.40455169  0.78689421     0.18000
N1492       N  0.59524124  0.39919478  0.72402234    -0.81200
H1493       H  0.55700492  0.45581679  0.77407256     0.33600
H1494       H  0.54781219  0.43635628  0.80237689     0.38100
H1495       H  0.60159865  0.39228476  0.73994903     0.33600
H1496       H  0.58172832  0.38594080  0.71272857     0.30300
H1497       H  0.52244504  0.40130267  0.67568885     0.33600
H1498       H  0.53333374  0.39250210  0.70370885     0.30300
H1499       H  0.61756466  0.44790149  0.60530979     0.38100
H1500       H  0.62837219  0.43935898  0.63379580     0.33600
C1501       C  0.57403541  0.42781817  0.29046321    -0.20100
C1502       C  0.59307961  0.43505396  0.27129701     0.36100
C1503       C  0.59075732  0.43297651  0.23799901    -0.26100
C1504       C  0.56986385  0.42386405  0.22361677     0.02500
C1505       C  0.55086764  0.41651192  0.24268439     0.27300
C1506       C  0.55314777  0.41858313  0.27589166    -0.25200
N1507       N  0.61468231  0.44491347  0.28556922    -0.82600
H1508       H  0.60528536  0.43863556  0.22311745     0.13100
C1509       C  0.56805484  0.42250091  0.18847456     0.02500
N1510       N  0.52937543  0.40718422  0.22817342    -0.81200
H1511       H  0.53850510  0.41293963  0.29051465     0.18000
C1512       C  0.55709071  0.40163212  0.17371190    -0.26000
C1513       C  0.55449100  0.39968917  0.14047007     0.36000
C1514       C  0.56316892  0.41907205  0.12172113    -0.20000
C1515       C  0.57399286  0.43993876  0.13662158    -0.25300
C1516       C  0.57656392  0.44185174  0.16983502     0.27400
H1517       H  0.55041636  0.38683591  0.18826566     0.13100
N1518       N  0.54268471  0.37816288  0.12579223    -0.82600
H1519       H  0.58063244  0.45481259  0.12224263     0.18000
N1520       N  0.58762543  0.46332410  0.18477226    -0.81200
H1521       H  0.53744516  0.36567213  0.14294068     0.33600
H1522       H  0.52836162  0.37663984  0.11548082     0.38100
H1523       H  0.59305075  0.47587100  0.16768629     0.33600
H1524       H  0.57599768  0.46466131  0.19885283     0.30300
H1525       H  0.51708456  0.40241143  0.24553761     0.33600
H1526       H  0.52910432  0.41968008  0.21479974     0.30300
H1527       H  0.61783641  0.45975695  0.29633759     0.38100
H1528       H  0.62684652  0.44914789  0.26813996     0.33600
C1529       C  0.53961862  0.49244833  0.38322146    -0.20100
C1530       C  0.52214417  0.49573543  0.39354410     0.36100
C1531       C  0.51485551  0.50710585  0.37374802    -0.26100
C1532       C  0.52480012  0.51556800  0.34418275     0.02500
C1533       C  0.54279946  0.51320711  0.33440462     0.27300
C1534       C  0.54993718  0.50156929  0.35390046    -0.25200
N1535       N  0.51099745  0.48648425  0.42315588    -0.82600
H1536       H  0.50097928  0.50895448  0.38104677     0.13100
C1537       C  0.51499950  0.52528100  0.32272554     0.02500
N1538       N  0.55361804  0.52247945  0.30461103    -0.81200
H1539       H  0.56338695  0.49924570  0.34588582     0.18000
C1540       C  0.52226628  0.54803696  0.32413466    -0.26000
C1541       C  0.51218321  0.55730774  0.30539297     0.36000
C1542       C  0.49459500  0.54349646  0.28472679    -0.20000
C1543       C  0.48791047  0.52085733  0.28272563    -0.25300
C1544       C  0.49774548  0.51158364  0.30173590     0.27400
H1545       H  0.53556736  0.55847728  0.34029573     0.13100
N1546       N  0.51961819  0.58059637  0.30741353    -0.82600
H1547       H  0.47421755  0.51010897  0.26732471     0.18000
N1548       N  0.48970066  0.48812948  0.30077066    -0.81200
H1549       H  0.53258220  0.58836991  0.32378274     0.33600
H1550       H  0.52609494  0.58757389  0.28519135     0.38100
H1551       H  0.47653405  0.48026669  0.28473759     0.33600
H1552       H  0.50241295  0.48583528  0.29198508     0.30300
H1553       H  0.56675972  0.51955927  0.30107394     0.33600
H1554       H  0.54225405  0.51415325  0.28634946     0.30300
H1555       H  0.52203057  0.49539175  0.44150832     0.38100
H1556       H  0.49751380  0.48896096  0.42596316     0.33600
C1557       C  0.45972607  0.50715795  0.62665206    -0.20100
C1558       C  0.47164212  0.51482619  0.59778434     0.36100
C1559       C  0.47757688  0.50121145  0.58090685    -0.26100
C1560       C  0.47192685  0.48006704  0.59203423     0.02500
C1561       C  0.45974879  0.47223903  0.62061595     0.27300
C1562       C  0.45399547  0.48598125  0.63783125    -0.25200
N1563       N  0.47844318  0.53676027  0.58627297    -0.82600
H1564       H  0.48744512  0.50749977  0.55949142     0.13100
C1565       C  0.48083684  0.46746451  0.57495195     0.02500
N1566       N  0.45333835  0.45040567  0.63203661    -0.81200
H1567       H  0.44485727  0.48009082  0.65990859     0.18000
C1568       C  0.49379484  0.46079806  0.59188073    -0.26000
C1569       C  0.50531656  0.45183629  0.57625711     0.36000
C1570       C  0.50385988  0.44943286  0.54270928    -0.20000
C1571       C  0.49025841  0.45539792  0.52586349    -0.25300
C1572       C  0.47856488  0.46417748  0.54165927     0.27400
H1573       H  0.49590923  0.46371060  0.61731206     0.13100
N1574       N  0.51938078  0.44629793  0.59428502    -0.82600
H1575       H  0.48899733  0.45349598  0.50021515     0.18000
N1576       N  0.46468868  0.47012699  0.52400434    -0.81200
H1577       H  0.51811174  0.44852869  0.61865527     0.33600
H1578       H  0.53575789  0.45750434  0.58792567     0.38100
H1579       H  0.46491163  0.46681229  0.49976523     0.33600
H1580       H  0.44842455  0.45993970  0.53181430     0.30300
H1581       H  0.44454327  0.44719480  0.65337441     0.33600
H1582       H  0.44247247  0.43900491  0.61533336     0.30300
H1583       H  0.48981849  0.54809812  0.60257840     0.38100
H1584       H  0.48680306  0.53968698  0.56458238     0.33600
loop_ 
_geom_bond_atom_site_label_1 
_geom_bond_atom_site_label_2 
_geom_bond_distance 
_geom_bond_site_symmetry_2 
_ccdc_geom_bond_type 
O1           Mg3   2.123       .  S
O1           Mg9   2.136       .  S
O1           C36   1.238       .  S
C2           O15   1.236       .  S
C2           O39   1.268       .  A
C2           H41   1.081       .  S
Mg3          O32   2.156       .  S
Mg3          O47   2.342       .  S
Mg3          O43   2.250       .  S
Mg3          O14   2.313       .  S
O4          Mg46   2.154       .  S
O4          Mg29   2.147       .  S
O4           C25   1.235       .  S
O5           C36   1.271       .  A
O5          Mg29   2.295       .  S
C6            O8   1.271       .  A
C6           O20   1.277       .  A
C6         C1570   1.485       .  S
O7           C35   1.272       .  A
O7           Mg9   2.301       .  S
O8          Mg40   2.250       .  S
Mg9          O15   2.115       .  S
Mg9          O23   2.235       .  S
Mg9          O11   2.264       .  S
C10          O48   1.276       .  A
C10          O16   1.278       .  A
C10        C1529   1.493       .  S
O11          C18   1.270       .  A
H12          C25   1.081       .  S
C13          O27   1.236       .  S
C13          O28   1.271       .  A
C13          H38   1.081       .  S
O14          C37   1.272       .  A
O15         Mg29   2.154       .  S
O16         Mg46   2.320       .  S
C17          O30   1.275       .  A
C17          O22   1.278       .  A
C17        C1501   1.481       .  S
C18          O45   1.278       .  A
C18        C1445   1.491       .  S
Mg19         O26   2.171       .  S
Mg19         O27   2.149       .  S
Mg19         O20   2.318       .  S
Mg19         O21   2.296       .  S
Mg19         O48   2.293       .  S
O21          C25   1.269       .  A
O22         Mg29   2.316       .  S
O23          C42   1.269       .  A
O24          C44   1.277       .  A
O24         Mg40   2.325       .  S
O26         Mg40   2.159       .  S
O26          C37   1.237       .  S
O27         Mg46   2.152       .  S
O28         Mg40   2.306       .  S
Mg29         O45   2.309       .  S
O30         Mg46   2.261       .  S
H31          C36   1.081       .  S
O32         Mg40   2.145       .  S
O32          C35   1.238       .  S
H33          C35   1.081       .  S
H34          C37   1.081       .  S
O39         Mg46   2.284       .  S
C42          O47   1.278       .  A
C42        C1417   1.493       .  S
O43          C44   1.271       .  A
C44        C1473   1.483       .  S
O49         Mg51   2.143       .  S
O49         Mg57   2.141       .  S
O49          C84   1.238       .  S
C50          O63   1.235       .  S
C50          O87   1.267       .  A
C50          H89   1.081       .  S
Mg51         O80   2.157       .  S
Mg51         O95   2.357       .  S
Mg51         O91   2.274       .  S
Mg51         O62   2.314       .  S
O52         Mg94   2.157       .  S
O52         Mg77   2.133       .  S
O52          C73   1.236   1_554  S
O53          C84   1.271       .  A
O53         Mg77   2.300   1_556  S
C54          O56   1.275       .  A
C54          O68   1.280       .  A
C54        C1361   1.493       .  S
O55          C83   1.273       .  A
O55         Mg57   2.306       .  S
O56         Mg88   2.280       .  S
Mg57         O63   2.109   1_556  S
Mg57         O71   2.220       .  S
Mg57         O59   2.292       .  S
C58          O96   1.279   1_554  A
C58          O64   1.271       .  A
C58        C1402   1.498       .  S
O59          C66   1.274   1_556  A
H60          C73   1.081   1_554  S
C61          O75   1.236       .  S
C61          O76   1.270       .  A
C61          H86   1.081       .  S
O62          C85   1.273       .  A
O63         Mg77   2.148       .  S
O64         Mg94   2.271       .  S
C65          O78   1.273       .  A
C65          O70   1.276       .  A
C65        C1514   1.479       .  S
C66          O93   1.274       .  A
C66        C1305   1.487       .  S
Mg67         O74   2.168       .  S
Mg67         O75   2.157       .  S
Mg67         O68   2.334       .  S
Mg67         O69   2.293       .  S
Mg67         O96   2.313       .  S
O69          C73   1.270       .  A
O70         Mg77   2.306       .  S
O71          C90   1.267       .  A
O72          C92   1.276       .  A
O72         Mg88   2.313       .  S
O74         Mg88   2.157       .  S
O74          C85   1.238       .  S
O75         Mg94   2.141   1_556  S
O76         Mg88   2.297       .  S
Mg77         O93   2.278       .  S
O78         Mg94   2.262       .  S
H79          C84   1.081       .  S
O80         Mg88   2.159       .  S
O80          C83   1.238       .  S
H81          C83   1.081       .  S
H82          C85   1.081       .  S
O87         Mg94   2.279       .  S
C90          O95   1.281       .  A
C90        C1333   1.490       .  S
O91          C92   1.275       .  A
C92        C1486   1.497       .  S
O97         Mg99   2.135       .  S
O97        Mg105   2.127       .  S
O97         C132   1.238       .  S
C98         O111   1.237       .  S
C98         O135   1.268       .  A
C98         H137   1.081       .  S
Mg99        O128   2.155       .  S
Mg99        O143   2.338       .  S
Mg99        O139   2.262       .  S
Mg99        O110   2.309       .  S
O100       Mg142   2.149       .  S
O100       Mg125   2.131       .  S
O100        C121   1.235       .  S
O101        C132   1.272       .  A
O101       Mg125   2.302       .  S
C102        O104   1.274       .  A
C102        O116   1.279       .  A
C102       C1542   1.487       .  S
O103        C131   1.275       .  A
O103       Mg105   2.316       .  S
O104       Mg136   2.271       .  S
Mg105       O111   2.115       .  S
Mg105       O119   2.241       .  S
Mg105       O107   2.286       .  S
C106        O144   1.278       .  A
C106        O112   1.273       .  A
C106       C1389   1.487       .  S
O107        C114   1.273       .  A
H108        C121   1.081       .  S
C109        O123   1.235       .  S
C109        O124   1.269       .  A
C109        H134   1.081       .  S
O110        C133   1.272       .  A
O111       Mg125   2.152       .  S
O112       Mg142   2.277       .  S
C113        O126   1.272       .  A
C113        O118   1.280       .  A
C113       C1249   1.480       .  S
C114        O141   1.277       .  A
C114       C1221   1.492       .  S
Mg115       O122   2.160       .  S
Mg115       O123   2.164       .  S
Mg115       O116   2.321       .  S
Mg115       O117   2.287       .  S
Mg115       O144   2.307       .  S
O117        C121   1.268       .  A
O118       Mg125   2.326       .  S
O119        C138   1.268       .  A
O120        C140   1.275       .  A
O120       Mg136   2.312       .  S
O122       Mg136   2.166       .  S
O122        C133   1.237       .  S
O123       Mg142   2.143       .  S
O124       Mg136   2.293       .  S
Mg125       O141   2.294       .  S
O126       Mg142   2.254       .  S
H127        C132   1.081       .  S
O128       Mg136   2.158       .  S
O128        C131   1.240       .  S
H129        C131   1.081       .  S
H130        C133   1.081       .  S
O135       Mg142   2.282       .  S
C138        O143   1.277       .  A
C138       C1193   1.480       .  S
O139        C140   1.272       .  A
C140       C1290   1.490       .  S
O145       Mg147   2.133       .  S
O145       Mg153   2.137       .  S
O145        C180   1.238       .  S
C146        O159   1.235       .  S
C146        O183   1.268       .  A
C146        H185   1.081       .  S
Mg147       O176   2.157       .  S
Mg147       O191   2.355       .  S
Mg147       O187   2.259       .  S
Mg147       O158   2.319       .  S
O148       Mg190   2.153       .  S
O148       Mg173   2.144       .  S
O148        C169   1.235       .  S
O149        C180   1.271       .  A
O149       Mg173   2.299       .  S
C150        O152   1.272       .  A
C150        O164   1.278       .  A
C150       C1374   1.483       .  S
O151        C179   1.273       .  A
O151       Mg153   2.308       .  S
O152       Mg184   2.273       .  S
Mg153       O159   2.117       .  S
Mg153       O167   2.239       .  S
Mg153       O155   2.284       .  S
C154        O192   1.275       .  A
C154        O160   1.273       .  A
C154       C1557   1.482       .  S
O155        C162   1.273       .  A
H156        C169   1.081       .  S
C157        O171   1.236       .  S
C157        O172   1.271       .  A
C157        H182   1.081       .  S
O158        C181   1.273       .  A
O159       Mg173   2.146       .  S
O160       Mg190   2.283       .  S
C161        O174   1.274       .  A
C161        O166   1.277       .  A
C161       C1277   1.483       .  S
C162        O189   1.275       .  A
C162       C1165   1.486       .  S
Mg163       O170   2.166       .  S
Mg163       O171   2.160       .  S
Mg163       O164   2.340       .  S
Mg163       O165   2.296       .  S
Mg163       O192   2.288       .  S
O165        C169   1.269       .  A
O166       Mg173   2.314       .  S
O167        C186   1.269       .  A
O168        C188   1.274       .  A
O168       Mg184   2.303       .  S
O170       Mg184   2.147       .  S
O170        C181   1.237       .  S
O171       Mg190   2.157       .  S
O172       Mg184   2.306       .  S
Mg173       O189   2.291       .  S
O174       Mg190   2.273       .  S
H175        C180   1.081       .  S
O176       Mg184   2.164       .  S
O176        C179   1.238       .  S
H177        C179   1.081       .  S
H178        C181   1.081       .  S
O183       Mg190   2.284       .  S
C186        O191   1.279       .  A
C186       C1137   1.498       .  S
O187        C188   1.272       .  A
C188       C1262   1.482       .  S
O193       Mg195   2.128       .  S
O193       Mg201   2.132       .  S
O193        C228   1.239       .  S
C194        O207   1.235       .  S
C194        O231   1.267       .  A
C194        H233   1.081       .  S
Mg195       O224   2.150       .  S
Mg195       O239   2.341       .  S
Mg195       O235   2.255       .  S
Mg195       O206   2.319       .  S
O196       Mg238   2.145       .  S
O196       Mg221   2.122       .  S
O196        C217   1.234       .  S
O197        C228   1.272       .  A
O197       Mg221   2.298   1_554  S
C198        O200   1.268       .  A
C198        O212   1.279       .  A
C198       C1025   1.480       .  S
O199        C227   1.273       .  A
O199       Mg201   2.307       .  S
O200       Mg232   2.229       .  S
Mg201       O207   2.106   1_554  S
Mg201       O215   2.226       .  S
Mg201       O203   2.275       .  S
C202        O240   1.278   1_556  A
C202        O208   1.274       .  A
C202       C1122   1.484       .  S
O203        C210   1.272   1_554  A
H204        C217   1.081       .  S
C205        O219   1.236       .  S
C205        O220   1.271       .  A
C205        H230   1.081       .  S
O206        C229   1.273       .  A
O207       Mg221   2.142       .  S
O208       Mg238   2.279       .  S
C209        O222   1.276       .  A
C209        O214   1.277       .  A
C209       C1053   1.483       .  S
C210        O237   1.273       .  A
C210        C997   1.481       .  S
Mg211       O218   2.176       .  S
Mg211       O219   2.168       .  S
Mg211       O212   2.336       .  S
Mg211       O213   2.285       .  S
Mg211       O240   2.300       .  S
O213        C217   1.267   1_554  A
O214       Mg221   2.307       .  S
O215        C234   1.267       .  A
O216        C236   1.275       .  A
O216       Mg232   2.314       .  S
O218       Mg232   2.155       .  S
O218        C229   1.237       .  S
O219       Mg238   2.159   1_554  S
O220       Mg232   2.303       .  S
Mg221       O237   2.272       .  S
O222       Mg238   2.282       .  S
H223        C228   1.081       .  S
O224       Mg232   2.139       .  S
O224        C227   1.238       .  S
H225        C227   1.081       .  S
H226        C229   1.081       .  S
O231       Mg238   2.281       .  S
C234        O239   1.278       .  A
C234       C1234   1.486       .  S
O235        C236   1.270       .  A
C236       C1094   1.486       .  S
O241       Mg243   2.129       .  S
O241       Mg249   2.133       .  S
O241        C276   1.238       .  S
C242        O255   1.235       .  S
C242        O279   1.268       .  A
C242        H281   1.081       .  S
Mg243       O272   2.155       .  S
Mg243       O287   2.341       .  S
Mg243       O283   2.258       .  S
Mg243       O254   2.314       .  S
O244       Mg286   2.151       .  S
O244       Mg269   2.131       .  S
O244        C265   1.235       .  S
O245        C276   1.272       .  A
O245       Mg269   2.298       .  S
C246        O248   1.272       .  A
C246        O260   1.277       .  A
C246        C954   1.486       .  S
O247        C275   1.273       .  A
O247       Mg249   2.309       .  S
O248       Mg280   2.258       .  S
Mg249       O255   2.109       .  S
Mg249       O263   2.227       .  S
Mg249       O251   2.269       .  S
C250        O288   1.276       .  A
C250        O256   1.274       .  A
C250        C969   1.481       .  S
O251        C258   1.271       .  A
H252        C265   1.081       .  S
C253        O267   1.236       .  S
C253        O268   1.271       .  A
C253        H278   1.081       .  S
O254        C277   1.273       .  A
O255       Mg269   2.148       .  S
O256       Mg286   2.286       .  S
C257        O270   1.275       .  A
C257        O262   1.278       .  A
C257       C1081   1.484       .  S
C258        O285   1.275       .  A
C258        C913   1.484       .  S
Mg259       O266   2.165       .  S
Mg259       O267   2.164       .  S
Mg259       O260   2.324       .  S
Mg259       O261   2.286       .  S
Mg259       O288   2.292       .  S
O261        C265   1.268       .  A
O262       Mg269   2.314       .  S
O263        C282   1.267       .  A
O264        C284   1.275       .  A
O264       Mg280   2.309       .  S
O266       Mg280   2.152       .  S
O266        C277   1.237       .  S
O267       Mg286   2.150       .  S
O268       Mg280   2.302       .  S
Mg269       O285   2.292       .  S
O270       Mg286   2.269       .  S
H271        C276   1.081       .  S
O272       Mg280   2.150       .  S
O272        C275   1.239       .  S
H273        C275   1.081       .  S
H274        C277   1.081       .  S
O279       Mg286   2.282       .  S
C282        O287   1.278       .  A
C282       C1178   1.483       .  S
O283        C284   1.272       .  A
C284       C1066   1.486       .  S
O289       Mg291   2.136       .  S
O289       Mg297   2.137       .  S
O289        C324   1.238       .  S
C290        O303   1.235       .  S
C290        O327   1.267       .  A
C290        H329   1.081       .  S
Mg291       O320   2.151       .  S
Mg291       O335   2.339       .  S
Mg291       O331   2.270       .  S
Mg291       O302   2.316       .  S
O292       Mg334   2.153       .  S
O292       Mg317   2.126       .  S
O292        C313   1.235       .  S
O293        C324   1.272       .  A
O293       Mg317   2.301       .  S
C294        O296   1.272       .  A
C294        O308   1.277       .  A
C294        C982   1.489       .  S
O295        C323   1.273       .  A
O295       Mg297   2.308       .  S
O296       Mg328   2.259       .  S
Mg297       O303   2.111       .  S
Mg297       O311   2.233       .  S
Mg297       O299   2.259       .  S
C298        O336   1.277       .  A
C298        O304   1.272       .  A
C298       C1038   1.489       .  S
O299        C306   1.270       .  A
H300        C313   1.081       .  S
C301        O315   1.236       .  S
C301        O316   1.271       .  A
C301        H326   1.081       .  S
O302        C325   1.273       .  A
O303       Mg317   2.157       .  S
O304       Mg334   2.274       .  S
C305        O318   1.275       .  A
C305        O310   1.278       .  A
C305        C885   1.480       .  S
C306        O333   1.275       .  A
C306        C842   1.484       .  S
Mg307       O314   2.169       .  S
Mg307       O315   2.160       .  S
Mg307       O308   2.319       .  S
Mg307       O309   2.289       .  S
Mg307       O336   2.300       .  S
O309        C313   1.268       .  A
O310       Mg317   2.311       .  S
O311        C330   1.268       .  A
O312        C332   1.276       .  A
O312       Mg328   2.317       .  S
O314       Mg328   2.155       .  S
O314        C325   1.237       .  S
O315       Mg334   2.151       .  S
O316       Mg328   2.302       .  S
Mg317       O333   2.292       .  S
O318       Mg334   2.276       .  S
H319        C324   1.081       .  S
O320       Mg328   2.149       .  S
O320        C323   1.239       .  S
H321        C323   1.081       .  S
H322        C325   1.081       .  S
O327       Mg334   2.277       .  S
C330        O335   1.278       .  A
C330       C1458   1.484       .  S
O331        C332   1.273       .  A
C332        C857   1.487       .  S
O337       Mg339   2.138       .  S
O337       Mg345   2.139       .  S
O337        C372   1.239       .  S
C338        O351   1.235       .  S
C338        O375   1.267       .  A
C338        H377   1.081       .  S
Mg339       O368   2.157       .  S
Mg339       O383   2.356       .  S
Mg339       O379   2.273       .  S
Mg339       O350   2.319       .  S
O340       Mg382   2.151       .  S
O340       Mg365   2.114       .  S
O340        C361   1.235       .  S
O341        C372   1.272       .  A
O341       Mg365   2.302       .  S
C342        O344   1.272       .  A
C342        O356   1.276       .  A
C342       C1109   1.483       .  S
O343        C371   1.273       .  A
O343       Mg345   2.308       .  S
O344       Mg376   2.259       .  S
Mg345       O351   2.107       .  S
Mg345       O359   2.217       .  S
Mg345       O347   2.275       .  S
C346        O384   1.278       .  A
C346        O352   1.273       .  A
C346        C941   1.489       .  S
O347        C354   1.272       .  A
H348        C361   1.081       .  S
C349        O363   1.236       .  S
C349        O364   1.271       .  A
C349        H374   1.081       .  S
O350        C373   1.273       .  A
O351       Mg365   2.149       .  S
O352       Mg382   2.278       .  S
C353        O366   1.275       .  A
C353        O358   1.277       .  A
C353        C870   1.482       .  S
C354        O381   1.273       .  A
C354        C801   1.478       .  S
Mg355       O362   2.174       .  S
Mg355       O363   2.159       .  S
Mg355       O356   2.315       .  S
Mg355       O357   2.282       .  S
Mg355       O384   2.305       .  S
O357        C361   1.267       .  A
O358       Mg365   2.310       .  S
O359        C378   1.266       .  A
O360        C380   1.275       .  A
O360       Mg376   2.308       .  S
O362       Mg376   2.152       .  S
O362        C373   1.236       .  S
O363       Mg382   2.146       .  S
O364       Mg376   2.301       .  S
Mg365       O381   2.270       .  S
O366       Mg382   2.276       .  S
H367        C372   1.081       .  S
O368       Mg376   2.155       .  S
O368        C371   1.238       .  S
H369        C371   1.081       .  S
H370        C373   1.081       .  S
O375       Mg382   2.276       .  S
C378        O383   1.280       .  A
C378       C1346   1.490       .  S
O379        C380   1.274       .  A
C380        C898   1.487       .  S
O385       Mg387   2.131       .  S
O385       Mg393   2.128       .  S
O385        C420   1.239       .  S
C386        O399   1.235       .  S
C386        O423   1.267       .  A
C386        H425   1.081       .  S
Mg387       O416   2.146       .  S
Mg387       O431   2.345       .  S
Mg387       O427   2.260       .  S
Mg387       O398   2.318       .  S
O388       Mg430   2.149       .  S
O388       Mg413   2.134       .  S
O388        C409   1.235       .  S
O389        C420   1.273       .  A
O389       Mg413   2.301       .  S
C390        O392   1.270       .  A
C390        O404   1.278       .  A
C390        C786   1.487       .  S
O391        C419   1.272       .  A
O391       Mg393   2.304       .  S
O392       Mg424   2.243       .  S
Mg393       O399   2.103       .  S
Mg393       O407   2.217       .  S
Mg393       O395   2.253       .  S
C394        O432   1.278       .  A
C394        O400   1.275       .  A
C394        C745   1.491       .  S
O395        C402   1.268       .  A
H396        C409   1.081       .  S
C397        O411   1.236       .  S
C397        O412   1.271       .  A
C397        H422   1.081       .  S
O398        C421   1.274       .  A
O399       Mg413   2.144       .  S
O400       Mg430   2.294       .  S
C401        O414   1.276       .  A
C401        O406   1.279       .  A
C401        C730   1.487       .  S
C402        O429   1.276       .  A
C402        C829   1.492       .  S
Mg403       O410   2.174       .  S
Mg403       O411   2.158       .  S
Mg403       O404   2.323       .  S
Mg403       O405   2.292       .  S
Mg403       O432   2.300       .  S
O405        C409   1.269       .  A
O406       Mg413   2.318       .  S
O407        C426   1.265       .  A
O408        C428   1.277       .  A
O408       Mg424   2.324       .  S
O410       Mg424   2.159       .  S
O410        C421   1.238       .  S
O411       Mg430   2.160       .  S
O412       Mg424   2.306       .  S
Mg413       O429   2.301       .  S
O414       Mg430   2.277       .  S
H415        C420   1.081       .  S
O416       Mg424   2.134       .  S
O416        C419   1.238       .  S
H417        C419   1.081       .  S
H418        C421   1.081       .  S
O423       Mg430   2.281       .  S
C426        O431   1.278       .  A
C426       C1318   1.490       .  S
O427        C428   1.272       .  A
C428        C689   1.489   1_554  S
O433       Mg435   2.130       .  S
O433       Mg441   2.130       .  S
O433        C468   1.239       .  S
C434        O447   1.235       .  S
C434        O471   1.268       .  A
C434        H473   1.081       .  S
Mg435       O464   2.149       .  S
Mg435       O479   2.335       .  S
Mg435       O475   2.260       .  S
Mg435       O446   2.313       .  S
O436       Mg478   2.148       .  S
O436       Mg461   2.136       .  S
O436        C457   1.236       .  S
O437        C468   1.273       .  A
O437       Mg461   2.304       .  S
C438        O440   1.270       .  A
C438        O452   1.281       .  A
C438        C661   1.493       .  S
O439        C467   1.274       .  A
O439       Mg441   2.307       .  S
O440       Mg472   2.247       .  S
Mg441       O447   2.111       .  S
Mg441       O455   2.236       .  S
Mg441       O443   2.273       .  S
C442        O480   1.277       .  A
C442        O448   1.275       .  A
C442        C633   1.484       .  S
O443        C450   1.272       .  A
H444        C457   1.081       .  S
C445        O459   1.236       .  S
C445        O460   1.271       .  A
C445        H470   1.081       .  S
O446        C469   1.273       .  A
O447       Mg461   2.140       .  S
O448       Mg478   2.285       .  S
C449        O462   1.276       .  A
C449        O454   1.278       .  A
C449        C702   1.487       .  S
C450        O477   1.274       .  A
C450        C814   1.475       .  S
Mg451       O458   2.164       .  S
Mg451       O459   2.164       .  S
Mg451       O452   2.350       .  S
Mg451       O453   2.296       .  S
Mg451       O480   2.293       .  S
O453        C457   1.270       .  A
O454       Mg461   2.316       .  S
O455        C474   1.269       .  A
O456        C476   1.276       .  A
O456       Mg472   2.319       .  S
O458       Mg472   2.154       .  S
O458        C469   1.237       .  S
O459       Mg478   2.162       .  S
O460       Mg472   2.303       .  S
Mg461       O477   2.288       .  S
O462       Mg478   2.288       .  S
H463        C468   1.081       .  S
O464       Mg472   2.142       .  S
O464        C467   1.239       .  S
H465        C467   1.081       .  S
H466        C469   1.081       .  S
O471       Mg478   2.285       .  S
C474        O479   1.277       .  A
C474       C1430   1.492       .  S
O475        C476   1.271       .  A
C476        C717   1.489       .  S
O481       Mg483   2.133       .  S
O481       Mg489   2.128       .  S
O481        C516   1.239       .  S
C482        O495   1.235       .  S
C482        O519   1.267       .  A
C482        H521   1.081       .  S
Mg483       O512   2.150       .  S
Mg483       O527   2.362       .  S
Mg483       O523   2.265       .  S
Mg483       O494   2.320       .  S
O484       Mg526   2.150       .  S
O484       Mg509   2.129       .  S
O484        C505   1.235       .  S
O485        C516   1.273       .  A
O485       Mg509   2.304       .  S
C486        O488   1.274       .  A
C486        O500   1.277       .  A
C486        C758   1.487       .  S
O487        C515   1.274       .  A
O487       Mg489   2.312       .  S
O488       Mg520   2.275       .  S
Mg489       O495   2.104       .  S
Mg489       O503   2.226       .  S
Mg489       O491   2.281       .  S
C490        O528   1.278       .  A
C490        O496   1.274       .  A
C490        C674   1.490       .  S
O491        C498   1.272       .  A
H492        C505   1.081       .  S
C493        O507   1.236       .  S
C493        O508   1.271       .  A
C493        H518   1.081       .  S
O494        C517   1.274       .  A
O495       Mg509   2.139       .  S
O496       Mg526   2.286       .  S
C497        O510   1.276       .  A
C497        O502   1.277       .  A
C497        C577   1.488       .  S
C498        O525   1.274       .  A
C498        C926   1.484       .  S
Mg499       O506   2.182       .  S
Mg499       O507   2.161       .  S
Mg499       O500   2.311       .  S
Mg499       O501   2.288       .  S
Mg499       O528   2.316       .  S
O501        C505   1.268       .  A
O502       Mg509   2.309       .  S
O503        C522   1.267       .  A
O504        C524   1.279       .  A
O504       Mg520   2.336       .  S
O506       Mg520   2.167       .  S
O506        C517   1.238       .  S
O507       Mg526   2.154       .  S
O508       Mg520   2.303       .  S
Mg509       O525   2.286       .  S
O510       Mg526   2.282       .  S
H511        C516   1.081       .  S
O512       Mg520   2.155       .  S
O512        C515   1.240       .  S
H513        C515   1.081       .  S
H514        C517   1.081       .  S
O519       Mg526   2.279       .  S
C522        O527   1.281       .  A
C522       C1206   1.491       .  S
O523        C524   1.272       .  A
C524        C618   1.494       .  S
O529       Mg531   2.126       .  S
O529       Mg537   2.141       .  S
O529        C564   1.240       .  S
C530        O543   1.237       .  S
C530        O567   1.269       .  A
C530        H569   1.081       .  S
Mg531       O560   2.158       .  S
Mg531       O575   2.336       .  S
Mg531       O571   2.272       .  S
Mg531       O542   2.311       .  S
O532       Mg574   2.139       .  S
O532       Mg557   2.129       .  S
O532        C553   1.235       .  S
O533        C564   1.273       .  A
O533       Mg557   2.299       .  S
C534        O536   1.269       .  A
C534        O548   1.279       .  A
C534        C646   1.486       .  S
O535        C563   1.272       .  A
O535       Mg537   2.299       .  S
O536       Mg568   2.245       .  S
Mg537       O543   2.121       .  S
Mg537       O551   2.255       .  S
Mg537       O539   2.259       .  S
C538        O576   1.276       .  A
C538        O544   1.276       .  A
C538        C773   1.482       .  S
O539        C546   1.270       .  A
H540        C553   1.081       .  S
C541        O555   1.237       .  S
C541        O556   1.272       .  A
C541        H566   1.081       .  S
O542        C565   1.272       .  A
O543       Mg557   2.148       .  S
O544       Mg574   2.302       .  S
C545        O558   1.277   1_554  A
C545        O550   1.278   1_554  A
C545        C605   1.490       .  S
C546        O573   1.274       .  A
C546       C1010   1.482       .  S
Mg547       O554   2.164       .  S
Mg547       O555   2.158       .  S
Mg547       O548   2.331       .  S
Mg547       O549   2.294       .  S
Mg547       O576   2.284       .  S
O549        C553   1.269       .  A
O550       Mg557   2.318       .  S
O551        C570   1.271       .  A
O552        C572   1.275       .  A
O552       Mg568   2.305       .  S
O554       Mg568   2.154       .  S
O554        C565   1.237       .  S
O555       Mg574   2.162       .  S
O556       Mg568   2.305       .  S
Mg557       O573   2.286       .  S
O558       Mg574   2.295       .  S
H559        C564   1.081       .  S
O560       Mg568   2.135       .  S
O560        C563   1.239       .  S
H561        C563   1.081       .  S
H562        C565   1.081       .  S
O567       Mg574   2.289       .  S
C570        O575   1.278       .  A
C570       C1150   1.496       .  S
O571        C572   1.273       .  A
C572        C590   1.486       .  S
C577        C578   1.416       .  A
C577        C582   1.406       .  A
C578        C579   1.407       .  A
C578        N583   1.438       .  S
C579        H584   1.084       .  S
C579        C580   1.403       .  A
C580        C585   1.489       .  S
C580        C581   1.411       .  A
C581        C582   1.407       .  A
C581        N586   1.438       .  S
C582        H587   1.084       .  S
N583        H603   1.046       .  S
N583        H604   1.046       .  S
C585        C588   1.402       .  A
C585        C592   1.412       .  A
N586        H601   1.046       .  S
N586        H602   1.046       .  S
C588        H593   1.084       .  S
C588        C589   1.406       .  A
C589        C590   1.415       .  A
C589        N594   1.438       .  S
C590        C591   1.406       .  A
C591        H595   1.084       .  S
C591        C592   1.409       .  A
C592        N596   1.438       .  S
N594        H597   1.046       .  S
N594        H598   1.046       .  S
N596        H599   1.046       .  S
N596        H600   1.046       .  S
C605        C606   1.414       .  A
C605        C610   1.406       .  A
C606        C607   1.410       .  A
C606        N611   1.438       .  S
C607        H612   1.084       .  S
C607        C608   1.405       .  A
C608        C613   1.494       .  S
C608        C609   1.412       .  A
C609        C610   1.408       .  A
C609        N614   1.438       .  S
C610        H615   1.084       .  S
N611        H631   1.046       .  S
N611        H632   1.046       .  S
C613        C616   1.403       .  A
C613        C620   1.412       .  A
N614        H629   1.046       .  S
N614        H630   1.046       .  S
C616        H621   1.084       .  S
C616        C617   1.409       .  A
C617        C618   1.418       .  A
C617        N622   1.438       .  S
C618        C619   1.407       .  A
C619        H623   1.084       .  S
C619        C620   1.409       .  A
C620        N624   1.438       .  S
N622        H625   1.046       .  S
N622        H626   1.045       .  S
N624        H627   1.046       .  S
N624        H628   1.046       .  S
C633        C634   1.415       .  A
C633        C638   1.405       .  A
C634        C635   1.402       .  A
C634        N639   1.439       .  S
C635        H640   1.084       .  S
C635        C636   1.402       .  A
C636        C641   1.492   1_545  S
C636        C637   1.414       .  A
C637        C638   1.411       .  A
C637        N642   1.437   1_545  S
C638        H643   1.083       .  S
N639        H659   1.046       .  S
N639        H660   1.046       .  S
C641        C644   1.403       .  A
C641        C648   1.413       .  A
N642        H657   1.046   1_565  S
N642        H658   1.045       .  S
C644        H649   1.083       .  S
C644        C645   1.406       .  A
C645        C646   1.418       .  A
C645        N650   1.439       .  S
C646        C647   1.403       .  A
C647        H651   1.084       .  S
C647        C648   1.407       .  A
C648        N652   1.438   1_565  S
N650        H653   1.046       .  S
N650        H654   1.046       .  S
N652        H655   1.046       .  S
N652        H656   1.046       .  S
C661        C662   1.420       .  A
C661        C666   1.405       .  A
C662        C663   1.407       .  A
C662        N667   1.439       .  S
C663        H668   1.084       .  S
C663        C664   1.401       .  A
C664        C669   1.494   1_545  S
C664        C665   1.414       .  A
C665        C666   1.411       .  A
C665        N670   1.437   1_545  S
C666        H671   1.084       .  S
N667        H687   1.045       .  S
N667        H688   1.046       .  S
C669        C672   1.400       .  A
C669        C676   1.415       .  A
N670        H685   1.046       .  S
N670        H686   1.046       .  S
C672        H677   1.084       .  S
C672        C673   1.403       .  A
C673        C674   1.417       .  A
C673        N678   1.439       .  S
C674        C675   1.406       .  A
C675        H679   1.083       .  S
C675        C676   1.414       .  A
C676        N680   1.437   1_565  S
N678        H681   1.046       .  S
N678        H682   1.046       .  S
N680        H683   1.046   1_545  S
N680        H684   1.046       .  S
C689        C690   1.415       .  A
C689        C694   1.406       .  A
C690        C691   1.409       .  A
C690        N695   1.438       .  S
C691        H696   1.083       .  S
C691        C692   1.405       .  A
C692        C697   1.494       .  S
C692        C693   1.412       .  A
C693        C694   1.407       .  A
C693        N698   1.438       .  S
C694        H699   1.084       .  S
N695        H715   1.046       .  S
N695        H716   1.046       .  S
C697        C700   1.405       .  A
C697        C704   1.413       .  A
N698        H713   1.046       .  S
N698        H714   1.046       .  S
C700        H705   1.083       .  S
C700        C701   1.408       .  A
C701        C702   1.414       .  A
C701        N706   1.438       .  S
C702        C703   1.405       .  A
C703        H707   1.084       .  S
C703        C704   1.408       .  A
C704        N708   1.438       .  S
N706        H709   1.046       .  S
N706        H710   1.046       .  S
N708        H711   1.046       .  S
N708        H712   1.046       .  S
C717        C718   1.416       .  A
C717        C722   1.406       .  A
C718        C719   1.407       .  A
C718        N723   1.438       .  S
C719        H724   1.083       .  S
C719        C720   1.404       .  A
C720        C725   1.494       .  S
C720        C721   1.413       .  A
C721        C722   1.407       .  A
C721        N726   1.438       .  S
C722        H727   1.084       .  S
N723        H743   1.046       .  S
N723        H744   1.046       .  S
C725        C728   1.405       .  A
C725        C732   1.413       .  A
N726        H741   1.046       .  S
N726        H742   1.046       .  S
C728        H733   1.083       .  S
C728        C729   1.407       .  A
C729        C730   1.414       .  A
C729        N734   1.438       .  S
C730        C731   1.405       .  A
C731        H735   1.084       .  S
C731        C732   1.407       .  A
C732        N736   1.438       .  S
N734        H737   1.046       .  S
N734        H738   1.046       .  S
N736        H739   1.046       .  S
N736        H740   1.046       .  S
C745        C746   1.418       .  A
C745        C750   1.406       .  A
C746        C747   1.408       .  A
C746        N751   1.438       .  S
C747        H752   1.084       .  S
C747        C748   1.400       .  A
C748        C753   1.483   1_545  S
C748        C749   1.410       .  A
C749        C750   1.407       .  A
C749        N754   1.438   1_545  S
C750        H755   1.083       .  S
N751        H771   1.045       .  S
N751        H772   1.046       .  S
C753        C756   1.399       .  A
C753        C760   1.410       .  A
N754        H769   1.046       .  S
N754        H770   1.044       .  S
C756        H761   1.084       .  S
C756        C757   1.404       .  A
C757        C758   1.416       .  A
C757        N762   1.438       .  S
C758        C759   1.407       .  A
C759        H763   1.084       .  S
C759        C760   1.411       .  A
C760        N764   1.438       .  S
N762        H765   1.046       .  S
N762        H766   1.046       .  S
N764        H767   1.046       .  S
N764        H768   1.044       .  S
C773        C774   1.414       .  A
C773        C778   1.404       .  A
C774        C775   1.406       .  A
C774        N779   1.438       .  S
C775        H780   1.084   1_556  S
C775        C776   1.400       .  A
C776        C781   1.479   1_566  S
C776        C777   1.411       .  A
C777        C778   1.406       .  A
C777        N782   1.438   1_565  S
C778        H783   1.084       .  S
N779        H799   1.046       .  S
N779        H800   1.046   1_556  S
C781        C784   1.400       .  A
C781        C788   1.408       .  A
N782        H797   1.046       .  S
N782        H798   1.044       .  S
C784        H789   1.084   1_545  S
C784        C785   1.404       .  A
C785        C786   1.416       .  A
C785        N790   1.438       .  S
C786        C787   1.410       .  A
C787        H791   1.084       .  S
C787        C788   1.408       .  A
C788        N792   1.438   1_554  S
N790        H793   1.046       .  S
N790        H794   1.046       .  S
N792        H795   1.046       .  S
N792        H796   1.044       .  S
C801        C802   1.413       .  A
C801        C806   1.404       .  A
C802        C803   1.403       .  A
C802        N807   1.437       .  S
C803        H808   1.084       .  S
C803        C804   1.401       .  A
C804        C809   1.480       .  S
C804        C805   1.410       .  A
C805        C806   1.405       .  A
C805        N810   1.438       .  S
C806        H811   1.084       .  S
N807        H827   1.046       .  S
N807        H828   1.045       .  S
C809        C812   1.399       .  A
C809        C816   1.413       .  A
N810        H825   1.046       .  S
N810        H826   1.046       .  S
C812        H817   1.084       .  S
C812        C813   1.397       .  A
C813        C814   1.411       .  A
C813        N818   1.433       .  S
C814        C815   1.403       .  A
C815        H819   1.084       .  S
C815        C816   1.409       .  A
C816        N820   1.437       .  S
N818        H821   1.046       .  S
N818        H822   1.046       .  S
N820        H823   1.046       .  S
N820        H824   1.046       .  S
C829        C830   1.423       .  A
C829        C834   1.406       .  A
C830        C831   1.403       .  A
C830        N835   1.439       .  S
C831        H836   1.084       .  S
C831        C832   1.397       .  A
C832        C837   1.482       .  S
C832        C833   1.411       .  A
C833        C834   1.406       .  A
C833        N838   1.438       .  S
C834        H839   1.083       .  S
N835        H855   1.046       .  S
N835        H856   1.046       .  S
C837        C840   1.397       .  A
C837        C844   1.412       .  A
N838        H853   1.046       .  S
N838        H854   1.046       .  S
C840        H845   1.084       .  S
C840        C841   1.399       .  A
C841        C842   1.419       .  A
C841        N846   1.439       .  S
C842        C843   1.405       .  A
C843        H847   1.083       .  S
C843        C844   1.409       .  A
C844        N848   1.437       .  S
N846        H849   1.046       .  S
N846        H850   1.046       .  S
N848        H851   1.046       .  S
N848        H852   1.046       .  S
C857        C858   1.416       .  A
C857        C862   1.407       .  A
C858        C859   1.407       .  A
C858        N863   1.438       .  S
C859        H864   1.084       .  S
C859        C860   1.400       .  A
C860        C865   1.481       .  S
C860        C861   1.409       .  A
C861        C862   1.408       .  A
C861        N866   1.438       .  S
C862        H867   1.084       .  S
N863        H883   1.046       .  S
N863        H884   1.046       .  S
C865        C868   1.401       .  A
C865        C872   1.409       .  A
N866        H881   1.046       .  S
N866        H882   1.044       .  S
C868        H873   1.084       .  S
C868        C869   1.407       .  A
C869        C870   1.413       .  A
C869        N874   1.438       .  S
C870        C871   1.405       .  A
C871        H875   1.084       .  S
C871        C872   1.407       .  A
C872        N876   1.438       .  S
N874        H877   1.046       .  S
N874        H878   1.046       .  S
N876        H879   1.046       .  S
N876        H880   1.044       .  S
C885        C886   1.413       .  A
C885        C890   1.405       .  A
C886        C887   1.407       .  A
C886        N891   1.438       .  S
C887        H892   1.084       .  S
C887        C888   1.401       .  A
C888        C893   1.480       .  S
C888        C889   1.409       .  A
C889        C890   1.407       .  A
C889        N894   1.438       .  S
C890        H895   1.084       .  S
N891        H911   1.046       .  S
N891        H912   1.046       .  S
C893        C896   1.400   1_554  A
C893        C900   1.408       .  A
N894        H909   1.046       .  S
N894        H910   1.045       .  S
C896        H901   1.084   1_556  S
C896        C897   1.407       .  A
C897        C898   1.417       .  A
C897        N902   1.438       .  S
C898        C899   1.406       .  A
C899        H903   1.083       .  S
C899        C900   1.407   1_556  A
C900        N904   1.438       .  S
N902        H905   1.046       .  S
N902        H906   1.046       .  S
N904        H907   1.046       .  S
N904        H908   1.045       .  S
C913        C914   1.417       .  A
C913        C918   1.406       .  A
C914        C915   1.403       .  A
C914        N919   1.438       .  S
C915        H920   1.084       .  S
C915        C916   1.398       .  A
C916        C921   1.479       .  S
C916        C917   1.409       .  A
C917        C918   1.408       .  A
C917        N922   1.437       .  S
C918        H923   1.083       .  S
N919        H939   1.046       .  S
N919        H940   1.046       .  S
C921        C924   1.397       .  A
C921        C928   1.409       .  A
N922        H937   1.046       .  S
N922        H938   1.046       .  S
C924        H929   1.084       .  S
C924        C925   1.403       .  A
C925        C926   1.418       .  A
C925        N930   1.439       .  S
C926        C927   1.405       .  A
C927        H931   1.083       .  S
C927        C928   1.408       .  A
C928        N932   1.437       .  S
N930        H933   1.046       .  S
N930        H934   1.046       .  S
N932        H935   1.046       .  S
N932        H936   1.046       .  S
C941        C942   1.419       .  A
C941        C946   1.405       .  A
C942        C943   1.403       .  A
C942        N947   1.439       .  S
C943        H948   1.083       .  S
C943        C944   1.402       .  A
C944        C949   1.494   1_655  S
C944        C945   1.414       .  A
C945        C946   1.410       .  A
C945        N950   1.437   1_655  S
C946        H951   1.083       .  S
N947        H967   1.046       .  S
N947        H968   1.046       .  S
C949        C952   1.403       .  A
C949        C956   1.415       .  A
N950        H965   1.046   1_455  S
N950        H966   1.046       .  S
C952        H957   1.083       .  S
C952        C953   1.405       .  A
C953        C954   1.416       .  A
C953        N958   1.439       .  S
C954        C955   1.404       .  A
C955        H959   1.084       .  S
C955        C956   1.409       .  A
C956        N960   1.438   1_455  S
N958        H961   1.046       .  S
N958        H962   1.046       .  S
N960        H963   1.046       .  S
N960        H964   1.045       .  S
C969        C970   1.410       .  A
C969        C974   1.404       .  A
C970        C971   1.410       .  A
C970        N975   1.437       .  S
C971        H976   1.083       .  S
C971        C972   1.407       .  A
C972        C977   1.493   1_455  S
C972        C973   1.413       .  A
C973        C974   1.403       .  A
C973        N978   1.439       .  S
C974        H979   1.084       .  S
N975        H995   1.046       .  S
N975        H996   1.046       .  S
C977        C980   1.406       .  A
C977        C984   1.411       .  A
N978        H993   1.046       .  S
N978        H994   1.046       .  S
C980        H985   1.084   1_655  S
C980        C981   1.407       .  A
C981        C982   1.414       .  A
C981        N986   1.438       .  S
C982        C983   1.407       .  A
C983        H987   1.083       .  S
C983        C984   1.406       .  A
C984        N988   1.438       .  S
N986        H989   1.046       .  S
N986        H990   1.045       .  S
N988        H991   1.046       .  S
N988        H992   1.046       .  S
C997        C998   1.415       .  A
C997       C1002   1.407       .  A
C998        C999   1.402       .  A
C998       N1003   1.438       .  S
C999       H1004   1.084       .  S
C999       C1000   1.398       .  A
C1000      C1005   1.473       .  S
C1000      C1001   1.407       .  A
C1001      C1002   1.405       .  A
C1001      N1006   1.438       .  S
C1002      H1007   1.083       .  S
N1003      H1023   1.046       .  S
N1003      H1024   1.046   1_556  S
C1005      C1008   1.395       .  A
C1005      C1012   1.408       .  A
N1006      H1021   1.046       .  S
N1006      H1022   1.046       .  S
C1008      H1013   1.084       .  S
C1008      C1009   1.400       .  A
C1009      C1010   1.419       .  A
C1009      N1014   1.439       .  S
C1010      C1011   1.405       .  A
C1011      H1015   1.083   1_556  S
C1011      C1012   1.408       .  A
C1012      N1016   1.437   1_556  S
N1014      H1017   1.046       .  S
N1014      H1018   1.046       .  S
N1016      H1019   1.046       .  S
N1016      H1020   1.046       .  S
C1025      C1026   1.416       .  A
C1025      C1030   1.402       .  A
C1026      C1027   1.403       .  A
C1026      N1031   1.439       .  S
C1027      H1032   1.084       .  S
C1027      C1028   1.401       .  A
C1028      C1033   1.489   1_455  S
C1028      C1029   1.415       .  A
C1029      C1030   1.408       .  A
C1029      N1034   1.437   1_455  S
C1030      H1035   1.084       .  S
N1031      H1051   1.046       .  S
N1031      H1052   1.046       .  S
C1033      C1036   1.399       .  A
C1033      C1040   1.413       .  A
N1034      H1049   1.046       .  S
N1034      H1050   1.046       .  S
C1036      H1041   1.084       .  S
C1036      C1037   1.401       .  A
C1037      C1038   1.420       .  A
C1037      N1042   1.439       .  S
C1038      C1039   1.406       .  A
C1039      H1043   1.083       .  S
C1039      C1040   1.410       .  A
C1040      N1044   1.437   1_655  S
N1042      H1045   1.046       .  S
N1042      H1046   1.046       .  S
N1044      H1047   1.046       .  S
N1044      H1048   1.045       .  S
C1053      C1054   1.414       .  A
C1053      C1058   1.404       .  A
C1054      C1055   1.407       .  A
C1054      N1059   1.438       .  S
C1055      H1060   1.084       .  S
C1055      C1056   1.404       .  A
C1056      C1061   1.488       .  S
C1056      C1057   1.411       .  A
C1057      C1058   1.405       .  A
C1057      N1062   1.438       .  S
C1058      H1063   1.084       .  S
N1059      H1079   1.046       .  S
N1059      H1080   1.046       .  S
C1061      C1064   1.403       .  A
C1061      C1068   1.411       .  A
N1062      H1077   1.046       .  S
N1062      H1078   1.046       .  S
C1064      H1069   1.084       .  S
C1064      C1065   1.405       .  A
C1065      C1066   1.415       .  A
C1065      N1070   1.438       .  S
C1066      C1067   1.407       .  A
C1067      H1071   1.083       .  S
C1067      C1068   1.407       .  A
C1068      N1072   1.438       .  S
N1070      H1073   1.046       .  S
N1070      H1074   1.046       .  S
N1072      H1075   1.046       .  S
N1072      H1076   1.046       .  S
C1081      C1082   1.414       .  A
C1081      C1086   1.404       .  A
C1082      C1083   1.406       .  A
C1082      N1087   1.438       .  S
C1083      H1088   1.083       .  S
C1083      C1084   1.404       .  A
C1084      C1089   1.491       .  S
C1084      C1085   1.413       .  A
C1085      C1086   1.406       .  A
C1085      N1090   1.438       .  S
C1086      H1091   1.084       .  S
N1087      H1107   1.046       .  S
N1087      H1108   1.046       .  S
C1089      C1092   1.404       .  A
C1089      C1096   1.413       .  A
N1090      H1105   1.046       .  S
N1090      H1106   1.046       .  S
C1092      H1097   1.084       .  S
C1092      C1093   1.405       .  A
C1093      C1094   1.414       .  A
C1093      N1098   1.438       .  S
C1094      C1095   1.405       .  A
C1095      H1099   1.084       .  S
C1095      C1096   1.407       .  A
C1096      N1100   1.438       .  S
N1098      H1101   1.046       .  S
N1098      H1102   1.046       .  S
N1100      H1103   1.046       .  S
N1100      H1104   1.046       .  S
C1109      C1110   1.412       .  A
C1109      C1114   1.405       .  A
C1110      C1111   1.408       .  A
C1110      N1115   1.437       .  S
C1111      H1116   1.083   1_655  S
C1111      C1112   1.406       .  A
C1112      C1117   1.491   1_655  S
C1112      C1113   1.412       .  A
C1113      C1114   1.404       .  A
C1113      N1118   1.438       .  S
C1114      H1119   1.084       .  S
N1115      H1135   1.046       .  S
N1115      H1136   1.046       .  S
C1117      C1120   1.407       .  A
C1117      C1124   1.412       .  A
N1118      H1133   1.046       .  S
N1118      H1134   1.046       .  S
C1120      H1125   1.083       .  S
C1120      C1121   1.409       .  A
C1121      C1122   1.410       .  A
C1121      N1126   1.437   1_556  S
C1122      C1123   1.406       .  A
C1123      H1127   1.084       .  S
C1123      C1124   1.404       .  A
C1124      N1128   1.439       .  S
N1126      H1129   1.046       .  S
N1126      H1130   1.046   1_554  S
N1128      H1131   1.046       .  S
N1128      H1132   1.046       .  S
C1137      C1138   1.417       .  A
C1137      C1142   1.411       .  A
C1138      C1139   1.413       .  A
C1138      N1143   1.437       .  S
C1139      H1144   1.084       .  S
C1139      C1140   1.406       .  A
C1140      C1145   1.492       .  S
C1140      C1141   1.407       .  A
C1141      C1142   1.405       .  A
C1141      N1146   1.438       .  S
C1142      H1147   1.083       .  S
N1143      H1163   1.045       .  S
N1143      H1164   1.046       .  S
C1145      C1148   1.404       .  A
C1145      C1152   1.409       .  A
N1146      H1161   1.046       .  S
N1146      H1162   1.046       .  S
C1148      H1153   1.084       .  S
C1148      C1149   1.410       .  A
C1149      C1150   1.417       .  A
C1149      N1154   1.438       .  S
C1150      C1151   1.410       .  A
C1151      H1155   1.083       .  S
C1151      C1152   1.408       .  A
C1152      N1156   1.438       .  S
N1154      H1157   1.046       .  S
N1154      H1158   1.046       .  S
N1156      H1159   1.046       .  S
N1156      H1160   1.046       .  S
C1165      C1166   1.413       .  A
C1165      C1170   1.407       .  A
C1166      C1167   1.408       .  A
C1166      N1171   1.438       .  S
C1167      H1172   1.084       .  S
C1167      C1168   1.406       .  A
C1168      C1173   1.488       .  S
C1168      C1169   1.409       .  A
C1169      C1170   1.404       .  A
C1169      N1174   1.438       .  S
C1170      H1175   1.084       .  S
N1171      H1191   1.046       .  S
N1171      H1192   1.046       .  S
C1173      C1176   1.406       .  A
C1173      C1180   1.409       .  A
N1174      H1189   1.046       .  S
N1174      H1190   1.046       .  S
C1176      H1181   1.083       .  S
C1176      C1177   1.409       .  A
C1177      C1178   1.412       .  A
C1177      N1182   1.438       .  S
C1178      C1179   1.407       .  A
C1179      H1183   1.084       .  S
C1179      C1180   1.403       .  A
C1180      N1184   1.438       .  S
N1182      H1185   1.046       .  S
N1182      H1186   1.046       .  S
N1184      H1187   1.046       .  S
N1184      H1188   1.046       .  S
C1193      C1194   1.412       .  A
C1193      C1198   1.402       .  A
C1194      C1195   1.405       .  A
C1194      N1199   1.438       .  S
C1195      H1200   1.083       .  S
C1195      C1196   1.404       .  A
C1196      C1201   1.495       .  S
C1196      C1197   1.417       .  A
C1197      C1198   1.409       .  A
C1197      N1202   1.438       .  S
C1198      H1203   1.084       .  S
N1199      H1219   1.046       .  S
N1199      H1220   1.046       .  S
C1201      C1204   1.401       .  A
C1201      C1208   1.416       .  A
N1202      H1217   1.046       .  S
N1202      H1218   1.045       .  S
C1204      H1209   1.083       .  S
C1204      C1205   1.404       .  A
C1205      C1206   1.419       .  A
C1205      N1210   1.439       .  S
C1206      C1207   1.404       .  A
C1207      H1211   1.083       .  S
C1207      C1208   1.411       .  A
C1208      N1212   1.437       .  S
N1210      H1213   1.046       .  S
N1210      H1214   1.046       .  S
N1212      H1215   1.046       .  S
N1212      H1216   1.046       .  S
C1221      C1222   1.422       .  A
C1221      C1226   1.406       .  A
C1222      C1223   1.406       .  A
C1222      N1227   1.438       .  S
C1223      H1228   1.084       .  S
C1223      C1224   1.398       .  A
C1224      C1229   1.486       .  S
C1224      C1225   1.411       .  A
C1225      C1226   1.407       .  A
C1225      N1230   1.438       .  S
C1226      H1231   1.083       .  S
N1227      H1247   1.046       .  S
N1227      H1248   1.046       .  S
C1229      C1232   1.399       .  A
C1229      C1236   1.412       .  A
N1230      H1245   1.046       .  S
N1230      H1246   1.046       .  S
C1232      H1237   1.084       .  S
C1232      C1233   1.401       .  A
C1233      C1234   1.416       .  A
C1233      N1238   1.438       .  S
C1234      C1235   1.407       .  A
C1235      H1239   1.083       .  S
C1235      C1236   1.411       .  A
C1236      N1240   1.437       .  S
N1238      H1241   1.046       .  S
N1238      H1242   1.046       .  S
N1240      H1243   1.046       .  S
N1240      H1244   1.046       .  S
C1249      C1250   1.415       .  A
C1249      C1254   1.404       .  A
C1250      C1251   1.405   1_554  A
C1250      N1255   1.438       .  S
C1251      H1256   1.084       .  S
C1251      C1252   1.399       .  A
C1252      C1257   1.477       .  S
C1252      C1253   1.409       .  A
C1253      C1254   1.406   1_556  A
C1253      N1258   1.438       .  S
C1254      H1259   1.084       .  S
N1255      H1275   1.046       .  S
N1255      H1276   1.046       .  S
C1257      C1260   1.401       .  A
C1257      C1264   1.408       .  A
N1258      H1273   1.046       .  S
N1258      H1274   1.044       .  S
C1260      H1265   1.084       .  S
C1260      C1261   1.406       .  A
C1261      C1262   1.416       .  A
C1261      N1266   1.438       .  S
C1262      C1263   1.405       .  A
C1263      H1267   1.084       .  S
C1263      C1264   1.404       .  A
C1264      N1268   1.438       .  S
N1266      H1269   1.046       .  S
N1266      H1270   1.046       .  S
N1268      H1271   1.046       .  S
N1268      H1272   1.044       .  S
C1277      C1278   1.413       .  A
C1277      C1282   1.405       .  A
C1278      C1279   1.407       .  A
C1278      N1283   1.438       .  S
C1279      H1284   1.084       .  S
C1279      C1280   1.404       .  A
C1280      C1285   1.489       .  S
C1280      C1281   1.411       .  A
C1281      C1282   1.406       .  A
C1281      N1286   1.438       .  S
C1282      H1287   1.084       .  S
N1283      H1303   1.046       .  S
N1283      H1304   1.046       .  S
C1285      C1288   1.403       .  A
C1285      C1292   1.410       .  A
N1286      H1301   1.046       .  S
N1286      H1302   1.046       .  S
C1288      H1293   1.084       .  S
C1288      C1289   1.407       .  A
C1289      C1290   1.417       .  A
C1289      N1294   1.438       .  S
C1290      C1291   1.408       .  A
C1291      H1295   1.083       .  S
C1291      C1292   1.406       .  A
C1292      N1296   1.438       .  S
N1294      H1297   1.046       .  S
N1294      H1298   1.045       .  S
N1296      H1299   1.046       .  S
N1296      H1300   1.046       .  S
C1305      C1306   1.417       .  A
C1305      C1310   1.406       .  A
C1306      C1307   1.405       .  A
C1306      N1311   1.437       .  S
C1307      H1312   1.084       .  S
C1307      C1308   1.399       .  A
C1308      C1313   1.482       .  S
C1308      C1309   1.410       .  A
C1309      C1310   1.406       .  A
C1309      N1314   1.438       .  S
C1310      H1315   1.083       .  S
N1311      H1331   1.046       .  S
N1311      H1332   1.045       .  S
C1313      C1316   1.396       .  A
C1313      C1320   1.410       .  A
N1314      H1329   1.046       .  S
N1314      H1330   1.046       .  S
C1316      H1321   1.084       .  S
C1316      C1317   1.401       .  A
C1317      C1318   1.422       .  A
C1317      N1322   1.439       .  S
C1318      C1319   1.406       .  A
C1319      H1323   1.083       .  S
C1319      C1320   1.410       .  A
C1320      N1324   1.437       .  S
N1322      H1325   1.046       .  S
N1322      H1326   1.046       .  S
N1324      H1327   1.046   1_554  S
N1324      H1328   1.046   1_554  S
C1333      C1334   1.421       .  A
C1333      C1338   1.405       .  A
C1334      C1335   1.403       .  A
C1334      N1339   1.437       .  S
C1335      H1340   1.084       .  S
C1335      C1336   1.396       .  A
C1336      C1341   1.482       .  S
C1336      C1337   1.411       .  A
C1337      C1338   1.410       .  A
C1337      N1342   1.437       .  S
C1338      H1343   1.083       .  S
N1339      H1359   1.046       .  S
N1339      H1360   1.046       .  S
C1341      C1344   1.396       .  A
C1341      C1348   1.411       .  A
N1342      H1357   1.046       .  S
N1342      H1358   1.046       .  S
C1344      H1349   1.084       .  S
C1344      C1345   1.403       .  A
C1345      C1346   1.421       .  A
C1345      N1350   1.438       .  S
C1346      C1347   1.406       .  A
C1347      H1351   1.083       .  S
C1347      C1348   1.410       .  A
C1348      N1352   1.437       .  S
N1350      H1353   1.046       .  S
N1350      H1354   1.046       .  S
N1352      H1355   1.046       .  S
N1352      H1356   1.046       .  S
C1361      C1362   1.414       .  A
C1361      C1366   1.407       .  A
C1362      C1363   1.411       .  A
C1362      N1367   1.438       .  S
C1363      H1368   1.083       .  S
C1363      C1364   1.408       .  A
C1364      C1369   1.503       .  S
C1364      C1365   1.415       .  A
C1365      C1366   1.409       .  A
C1365      N1370   1.438       .  S
C1366      H1371   1.084       .  S
N1367      H1387   1.046       .  S
N1367      H1388   1.046       .  S
C1369      C1372   1.410       .  A
C1369      C1376   1.416       .  A
N1370      H1385   1.046       .  S
N1370      H1386   1.046       .  S
C1372      H1377   1.083       .  S
C1372      C1373   1.414       .  A
C1373      C1374   1.409       .  A
C1373      N1378   1.437       .  S
C1374      C1375   1.402       .  A
C1375      H1379   1.084       .  S
C1375      C1376   1.407       .  A
C1376      N1380   1.438       .  S
N1378      H1381   1.046       .  S
N1378      H1382   1.046       .  S
N1380      H1383   1.046       .  S
N1380      H1384   1.046       .  S
C1389      C1390   1.416       .  A
C1389      C1394   1.405       .  A
C1390      C1391   1.402       .  A
C1390      N1395   1.439       .  S
C1391      H1396   1.083       .  S
C1391      C1392   1.402       .  A
C1392      C1397   1.494       .  S
C1392      C1393   1.416       .  A
C1393      C1394   1.412       .  A
C1393      N1398   1.437       .  S
C1394      H1399   1.083       .  S
N1395      H1415   1.046       .  S
N1395      H1416   1.046       .  S
C1397      C1400   1.400       .  A
C1397      C1404   1.414       .  A
N1398      H1413   1.046       .  S
N1398      H1414   1.045       .  S
C1400      H1405   1.083       .  S
C1400      C1401   1.405       .  A
C1401      C1402   1.423       .  A
C1401      N1406   1.439       .  S
C1402      C1403   1.407       .  A
C1403      H1407   1.083   1_554  S
C1403      C1404   1.410       .  A
C1404      N1408   1.438       .  S
N1406      H1409   1.046       .  S
N1406      H1410   1.046       .  S
N1408      H1411   1.046   1_554  S
N1408      H1412   1.045       .  S
C1417      C1418   1.416       .  A
C1417      C1422   1.410       .  A
C1418      C1419   1.411       .  A
C1418      N1423   1.437       .  S
C1419      H1424   1.084       .  S
C1419      C1420   1.404       .  A
C1420      C1425   1.485       .  S
C1420      C1421   1.406       .  A
C1421      C1422   1.403       .  A
C1421      N1426   1.438       .  S
C1422      H1427   1.083       .  S
N1423      H1443   1.045       .  S
N1423      H1444   1.046       .  S
C1425      C1428   1.404       .  A
C1425      C1432   1.406       .  A
N1426      H1441   1.046       .  S
N1426      H1442   1.046       .  S
C1428      H1433   1.084       .  S
C1428      C1429   1.410       .  A
C1429      C1430   1.417       .  A
C1429      N1434   1.438       .  S
C1430      C1431   1.410       .  A
C1431      H1435   1.083       .  S
C1431      C1432   1.404       .  A
C1432      N1436   1.438       .  S
N1434      H1437   1.046       .  S
N1434      H1438   1.045       .  S
N1436      H1439   1.046       .  S
N1436      H1440   1.046       .  S
C1445      C1446   1.422       .  A
C1445      C1450   1.405       .  A
C1446      C1447   1.405       .  A
C1446      N1451   1.439       .  S
C1447      H1452   1.084       .  S
C1447      C1448   1.398       .  A
C1448      C1453   1.486       .  S
C1448      C1449   1.412       .  A
C1449      C1450   1.408       .  A
C1449      N1454   1.438       .  S
C1450      H1455   1.083       .  S
N1451      H1471   1.046       .  S
N1451      H1472   1.046       .  S
C1453      C1456   1.400       .  A
C1453      C1460   1.412       .  A
N1454      H1469   1.046       .  S
N1454      H1470   1.046       .  S
C1456      H1461   1.084       .  S
C1456      C1457   1.404       .  A
C1457      C1458   1.416       .  A
C1457      N1462   1.438       .  S
C1458      C1459   1.404       .  A
C1459      H1463   1.084       .  S
C1459      C1460   1.408       .  A
C1460      N1464   1.437       .  S
N1462      H1465   1.046       .  S
N1462      H1466   1.045       .  S
N1464      H1467   1.046       .  S
N1464      H1468   1.046       .  S
C1473      C1474   1.414       .  A
C1473      C1478   1.404       .  A
C1474      C1475   1.406       .  A
C1474      N1479   1.438       .  S
C1475      H1480   1.084       .  S
C1475      C1476   1.403       .  A
C1476      C1481   1.491       .  S
C1476      C1477   1.413       .  A
C1477      C1478   1.408       .  A
C1477      N1482   1.438       .  S
C1478      H1483   1.084       .  S
N1479      H1499   1.046       .  S
N1479      H1500   1.046       .  S
C1481      C1484   1.402       .  A
C1481      C1488   1.411       .  A
N1482      H1497   1.046       .  S
N1482      H1498   1.046       .  S
C1484      H1489   1.084       .  S
C1484      C1485   1.408       .  A
C1485      C1486   1.420       .  A
C1485      N1490   1.438       .  S
C1486      C1487   1.409       .  A
C1487      H1491   1.083       .  S
C1487      C1488   1.407       .  A
C1488      N1492   1.438       .  S
N1490      H1493   1.046       .  S
N1490      H1494   1.046       .  S
N1492      H1495   1.046       .  S
N1492      H1496   1.046       .  S
C1501      C1502   1.414       .  A
C1501      C1506   1.405       .  A
C1502      C1503   1.407       .  A
C1502      N1507   1.438       .  S
C1503      H1508   1.084       .  S
C1503      C1504   1.403       .  A
C1504      C1509   1.481       .  S
C1504      C1505   1.408       .  A
C1505      C1506   1.403       .  A
C1505      N1510   1.438       .  S
C1506      H1511   1.084       .  S
N1507      H1527   1.046       .  S
N1507      H1528   1.046       .  S
C1509      C1512   1.402       .  A
C1509      C1516   1.409       .  A
N1510      H1525   1.046       .  S
N1510      H1526   1.046       .  S
C1512      H1517   1.084       .  S
C1512      C1513   1.406       .  A
C1513      C1514   1.412       .  A
C1513      N1518   1.438       .  S
C1514      C1515   1.404       .  A
C1515      H1519   1.084       .  S
C1515      C1516   1.405       .  A
C1516      N1520   1.438       .  S
N1518      H1521   1.046       .  S
N1518      H1522   1.046       .  S
N1520      H1523   1.046       .  S
N1520      H1524   1.046       .  S
C1529      C1530   1.418       .  A
C1529      C1534   1.408       .  A
C1530      C1531   1.410       .  A
C1530      N1535   1.438       .  S
C1531      H1536   1.084       .  S
C1531      C1532   1.401       .  A
C1532      C1537   1.486       .  S
C1532      C1533   1.408       .  A
C1533      C1534   1.409       .  A
C1533      N1538   1.438       .  S
C1534      H1539   1.084       .  S
N1535      H1555   1.045       .  S
N1535      H1556   1.046       .  S
C1537      C1540   1.403       .  A
C1537      C1544   1.409       .  A
N1538      H1553   1.046       .  S
N1538      H1554   1.045       .  S
C1540      H1545   1.083       .  S
C1540      C1541   1.412       .  A
C1541      C1542   1.414       .  A
C1541      N1546   1.437       .  S
C1542      C1543   1.406       .  A
C1543      H1547   1.084       .  S
C1543      C1544   1.406       .  A
C1544      N1548   1.438       .  S
N1546      H1549   1.046       .  S
N1546      H1550   1.046       .  S
N1548      H1551   1.046       .  S
N1548      H1552   1.045       .  S
C1557      C1558   1.416       .  A
C1557      C1562   1.403       .  A
C1558      C1559   1.403       .  A
C1558      N1563   1.439       .  S
C1559      H1564   1.084       .  S
C1559      C1560   1.402       .  A
C1560      C1565   1.490       .  S
C1560      C1561   1.414       .  A
C1561      C1562   1.409       .  A
C1561      N1566   1.437       .  S
C1562      H1567   1.084       .  S
N1563      H1583   1.046       .  S
N1563      H1584   1.046       .  S
C1565      C1568   1.402       .  A
C1565      C1572   1.413       .  A
N1566      H1581   1.046       .  S
N1566      H1582   1.046       .  S
C1568      H1573   1.083       .  S
C1568      C1569   1.404       .  A
C1569      C1570   1.417       .  A
C1569      N1574   1.439       .  S
C1570      C1571   1.405       .  A
C1571      H1575   1.084       .  S
C1571      C1572   1.408       .  A
C1572      N1576   1.438       .  S
N1574      H1577   1.046       .  S
N1574      H1578   1.046       .  S
N1576      H1579   1.046       .  S
N1576      H1580   1.045       .  S
