geometry optimzed in LAMMPS
_audit_creation_date              2020-11-30 
_audit_creation_method            'lammps2cif' 
_symmetry_space_group_name_H-M    'P1' 
_symmetry_Int_Tables_number       1 
_symmetry_cell_setting            triclinic 
loop_ 
_symmetry_equiv_pos_as_xyz 
  x,y,z 
_cell_length_a                    29.92155834 
_cell_length_b                    29.9688153280852 
_cell_length_c                    27.255967040409224 
_cell_angle_alpha                 89.74067256514877 
_cell_angle_beta                  89.96674915025451 
_cell_angle_gamma                 119.98330592212527 
loop_ 
_atom_site_label 
_atom_site_type_symbol 
_atom_site_fract_x 
_atom_site_fract_y 
_atom_site_fract_z 
_atom_site_charge 
Fe1        Fe  0.31775389  0.00187577  0.09318623     1.65800
Fe2        Fe  0.19063566  0.93013602  0.10847278     1.73200
Fe3        Fe  0.25958135  0.87612607  0.06573211     1.54400
O4          O  0.30788665  0.92025950  0.00849497    -0.80400
O5          O  0.17378705  0.86844905  0.15463090    -0.78700
O6          O  0.32497213  0.00184506  0.01766164    -0.82900
O7          O  0.36827989  0.97507744  0.09950867    -0.77700
O8          O  0.19811716  0.85406623  0.01838905    -0.79500
O9          O  0.22551766  0.97900947  0.16798589    -0.82200
C10         C  0.36307958  0.93332055  0.11567973     0.98500
C11         C  0.32261216  0.96540515  0.99154237     1.06000
O12         O  0.25536454  0.93496345  0.08911965    -1.11200
O13         O  0.20342638  0.98998287  0.06066356    -0.73700
O14         O  0.28092550  0.04399791  0.08767121    -0.77100
O15         O  0.32083137  0.89136104  0.11187921    -0.77800
C16         C  0.24320176  0.03438470  0.06042911     0.97400
O17         O  0.30823964  0.99876199  0.16871869    -0.75800
O18         O  0.14800563  0.88059035  0.05312504    -0.81000
C19         C  0.18207529  0.83066798  0.15227816     1.00100
C20         C  0.15662539  0.85588175  0.02046070     1.06000
O21         O  0.21090115  0.82723566  0.11995234    -0.76600
C22         C  0.26779723  0.99283888  0.19048094     1.04300
Fe23       Fe  0.33560352  0.98915660  0.76032167     1.65800
Fe24       Fe  0.40450409  0.92984365  0.77149837     1.73200
Fe25       Fe  0.46236709  0.05540195  0.73527941     1.54400
O26         O  0.41942098  0.06228426  0.67748325    -0.80400
O27         O  0.46782740  0.96992700  0.81647379    -0.78700
O28         O  0.33702008  0.99854221  0.68601196    -0.82900
O29         O  0.36447208  0.06695850  0.76910586    -0.77700
O30         O  0.48494104  0.01813264  0.68605382    -0.79500
O31         O  0.35789521  0.91762951  0.83372136    -0.82200
C32         C  0.40592856  0.10159097  0.78767027     0.98500
C33         C  0.37416644  0.03223279  0.66022217     1.06000
O34         O  0.40189941  0.99172530  0.75573804    -1.11200
O35         O  0.34300844  0.88517028  0.72500506    -0.73700
O36         O  0.29023879  0.91035413  0.75214098    -0.77100
O37         O  0.44723805  0.09989916  0.78398758    -0.77800
C38         C  0.29884472  0.88104166  0.72558901     0.97400
O39         O  0.33744401  0.98025527  0.83464381    -0.75800
O40         O  0.45198959  0.93709241  0.71258597    -0.81000
C41         C  0.50584494  0.01576679  0.81788296     1.00100
C42         C  0.47960115  0.97344855  0.68285046     1.06000
O43         O  0.50976765  0.05163729  0.78964364    -0.76600
C44         C  0.34392594  0.94615275  0.85625178     1.04300
Fe45       Fe  0.00345409  0.32367788  0.09521127     1.65800
Fe46       Fe  0.13001198  0.38801242  0.06710531     1.73200
Fe47       Fe  0.07106319  0.26312135  0.10671735     1.54400
O48         O  0.02417260  0.25033670  0.16838624    -0.80400
O49         O  0.15061750  0.34838742  0.01880729    -0.78700
O50         O  0.00474741  0.31350932  0.17012565    -0.82900
O51         O  0.95757526  0.24537349  0.08653310    -0.77700
O52         O  0.13417990  0.30390575  0.15148984    -0.79500
O53         O  0.08762254  0.39497832  0.00943479    -0.82200
C54         C  0.96586060  0.21527817  0.06097358     0.98500
C55         C  0.00994723  0.27828720  0.19127848     1.06000
O56         O  0.06920760  0.32537469  0.08986182    -1.11200
O57         O  0.11720757  0.43546026  0.11370514    -0.73700
O58         O  0.03316929  0.40112777  0.10481747    -0.77100
O59         O  0.00967009  0.21862558  0.06063999    -0.77800
C60         C  0.07609539  0.43724904  0.11906737     0.97400
O61         O  0.00456245  0.33391555  0.02033131    -0.75800
O62         O  0.17697043  0.38450512  0.12153626    -0.81000
C63         C  0.14486727  0.30348714  0.01732248     1.00100
C64         C  0.17254150  0.34958731  0.15131181     1.06000
O65         O  0.11808921  0.26869101  0.04853206    -0.76600
C66         C  0.04168897  0.36624837  0.99341165     1.04300
Fe67       Fe  0.31932206  0.31897969  0.90691489     1.65800
Fe68       Fe  0.26178747  0.19127702  0.89431214     1.73200
Fe69       Fe  0.38638710  0.25937950  0.93344043     1.54400
O70         O  0.43213563  0.32006091  0.88553477    -0.80400
O71         O  0.26852787  0.15012013  0.95194690    -0.78700
O72         O  0.39687815  0.36845942  0.89739449    -0.82900
O73         O  0.32854109  0.32691399  0.98176383    -0.77700
O74         O  0.38447886  0.20914052  0.87953337    -0.79500
O75         O  0.21554173  0.20568163  0.94103798    -0.82200
C76         C  0.36193292  0.32337891  0.00797063     0.98500
C77         C  0.43286391  0.36251449  0.88069353     1.06000
O78         O  0.32289346  0.25590339  0.91139660    -1.11200
O79         O  0.24835602  0.22555642  0.83330720    -0.73700
O80         O  0.31019138  0.30878144  0.83215089    -0.77100
O81         O  0.39212670  0.30828790  0.99099013    -0.77800
C82         C  0.27586668  0.26827932  0.81082339     0.97400
O83         O  0.24057104  0.28424548  0.91540444    -0.75800
O84         O  0.30427990  0.17103476  0.84905398    -0.81000
C85         C  0.30309391  0.15871123  0.98340319     1.00100
C86         C  0.35010025  0.17849690  0.84969557     1.06000
O87         O  0.34761430  0.19872705  0.98232886    -0.76600
C88         C  0.21122022  0.24554595  0.94133420     1.04300
Fe89       Fe  0.98452338  0.33367141  0.42884639     1.65800
Fe90       Fe  0.85648714  0.26537526  0.43971733     1.73200
Fe91       Fe  0.92415205  0.20688874  0.40430129     1.54400
O92         O  0.97255240  0.24865156  0.34530923    -0.80400
O93         O  0.83429769  0.20274827  0.48654137    -0.78700
O94         O  0.99330588  0.33149929  0.35405963    -0.82900
O95         O  0.03362278  0.30550416  0.43967999    -0.77700
O96         O  0.86285241  0.18311056  0.35643688    -0.79500
O97         O  0.89010959  0.31361232  0.50033214    -0.82200
C98         C  0.02759708  0.26350893  0.45619290     0.98500
C99         C  0.98882641  0.29415586  0.32806576     1.06000
O100        O  0.92104021  0.26746671  0.42451979    -1.11200
O101        O  0.87365475  0.32614348  0.39089120    -0.73700
O102        O  0.95098631  0.37855355  0.41911959    -0.77100
O103        O  0.98510477  0.22194566  0.45148774    -0.77800
C104        C  0.91422137  0.37001507  0.39095400     0.97400
O105        O  0.97270810  0.33274618  0.50354053    -0.75800
O106        O  0.81535112  0.21647066  0.38299871    -0.81000
C107        C  0.84290305  0.16510759  0.48840004     1.00100
C108        C  0.82308435  0.18794007  0.35411495     1.06000
O109        O  0.87455414  0.16111726  0.45994700    -0.76600
C110        C  0.93189598  0.32744701  0.52392751     1.04300
Fe111      Fe  0.34714741  0.33581625  0.24085207     1.65800
Fe112      Fe  0.47503963  0.40557921  0.22792361     1.73200
Fe113      Fe  0.40685186  0.46226921  0.26631529     1.54400
O114        O  0.34647807  0.44735255  0.21875327    -0.80400
O115        O  0.51629237  0.45378321  0.28543394    -0.78700
O116        O  0.29783115  0.36404565  0.23201643    -0.82900
O117        O  0.33924426  0.33720092  0.31577176    -0.77700
O118        O  0.45646515  0.50976895  0.21172539    -0.79500
O119        O  0.45981234  0.34436832  0.27473894    -0.82200
C120        C  0.34264829  0.37419665  0.34156488     0.98500
C121        C  0.30395737  0.40577739  0.21462157     1.06000
O122        O  0.41039265  0.40223990  0.24497245    -1.11200
O123        O  0.44082760  0.35802776  0.16706097    -0.73700
O124        O  0.35762918  0.33717124  0.16592580    -0.77100
O125        O  0.35788304  0.41938728  0.32420098    -0.77800
C126        C  0.39821816  0.34304876  0.14456584     0.97400
O127        O  0.38132434  0.29130042  0.24889637    -0.75800
O128        O  0.49547437  0.46823550  0.18210518    -0.81000
C129        C  0.50788384  0.48061466  0.31604725     1.00100
C130        C  0.48712662  0.50598708  0.18189503     1.06000
O131        O  0.46774594  0.48493496  0.31465397    -0.76600
C132        C  0.41992482  0.30006964  0.27447070     1.04300
Fe133      Fe  0.00894200  0.34784421  0.76212995     1.65800
Fe134      Fe  0.94067613  0.40664694  0.73634043     1.73200
Fe135      Fe  0.06696852  0.47588147  0.77107181     1.54400
O136        O  0.08250985  0.44388920  0.83277646    -0.80400
O137        O  0.97702645  0.46683689  0.68687634    -0.78700
O138        O  0.02128800  0.36050904  0.83640615    -0.82900
O139        O  0.08719139  0.38122927  0.75052834    -0.77700
O140        O  0.02586845  0.49784387  0.81675601    -0.79500
O141        O  0.93400772  0.35771272  0.67860933    -0.82200
C142        C  0.11653134  0.41969785  0.72436961     0.98500
C143        C  0.05606799  0.40169587  0.85645171     1.06000
O144        O  0.00514099  0.41076592  0.75674746    -1.11200
O145        O  0.89588814  0.34663458  0.78495349    -0.73700
O146        O  0.93200446  0.29881101  0.77493951    -0.77100
O147        O  0.11199086  0.45953578  0.72400168    -0.77800
C148        C  0.89570847  0.30464393  0.79087531     0.97400
O149        O  0.99684279  0.33792926  0.68771042    -0.75800
O150        O  0.94396712  0.45683454  0.79043257    -0.81000
C151        C  0.02152173  0.50650960  0.68356123     1.00100
C152        C  0.97951550  0.48898986  0.81834459     1.06000
O153        O  0.05804958  0.51510993  0.71266290    -0.76600
C154        C  0.96390580  0.34230620  0.66154430     1.04300
Fe155      Fe  0.34210088  0.01302927  0.42982029     1.65800
Fe156      Fe  0.27790073  0.07513844  0.40065897     1.73200
Fe157      Fe  0.40330162  0.14161549  0.43768429     1.54400
O158        O  0.41703557  0.10899482  0.49967843    -0.80400
O159        O  0.31712534  0.13443730  0.35040540    -0.78700
O160        O  0.35364183  0.02655008  0.50395780    -0.82900
O161        O  0.42037482  0.04502431  0.41939794    -0.77700
O162        O  0.36295768  0.16524069  0.48227973    -0.79500
O163        O  0.27065805  0.02461348  0.34416508    -0.82200
C164        C  0.44991947  0.08258128  0.39233851     0.98500
C165        C  0.38935004  0.06739086  0.52367613     1.06000
O166        O  0.34070111  0.07720609  0.42293724    -1.11200
O167        O  0.23087750  0.01615988  0.44969792    -0.73700
O168        O  0.26430572  0.96561552  0.44205456    -0.77100
O169        O  0.44704612  0.12329608  0.39153093    -0.77800
C170        C  0.22883197  0.97338129  0.45701151     0.97400
O171        O  0.33126758  0.00214640  0.35530825    -0.75800
O172        O  0.28195102  0.12709885  0.45366951    -0.81000
C173        C  0.36207002  0.17372998  0.34819794     1.00100
C174        C  0.31729244  0.15833288  0.48242111     1.06000
O175        O  0.39708591  0.18190496  0.37894490    -0.76600
C176        C  0.29957530  0.00751813  0.32818305     1.04300
Fe177      Fe  0.33167022  0.34735279  0.57327657     1.65800
Fe178      Fe  0.20506823  0.28076693  0.60029397     1.73200
Fe179      Fe  0.26195825  0.40583706  0.56252025     1.54400
O180        O  0.32300550  0.45031449  0.60928700    -0.80400
O181        O  0.15697094  0.28391350  0.54674019    -0.78700
O182        O  0.37620834  0.42584675  0.58161550    -0.82900
O183        O  0.32959412  0.35707810  0.49875875    -0.77700
O184        O  0.21394127  0.39848447  0.62047399    -0.79500
O185        O  0.21995042  0.23563135  0.55173158    -0.82200
C186        C  0.32353311  0.39182001  0.47781830     0.96700
C187        C  0.36717664  0.45443123  0.60867094     1.06000
O188        O  0.26513895  0.34426355  0.57858663    -1.11200
O189        O  0.24849518  0.27427261  0.65734338    -0.73700
O190        O  0.33093781  0.33746357  0.64796750    -0.77100
O191        O  0.30930316  0.41969052  0.50091661    -0.77800
C192        C  0.29386873  0.30412453  0.67421208     0.97400
O193        O  0.30346764  0.26996857  0.56375117    -0.75800
O194        O  0.18263283  0.31867366  0.64967418    -0.81000
C195        C  0.16051033  0.31905091  0.51774680     1.00100
C196        C  0.18692953  0.36310605  0.65113611     1.06000
O197        O  0.19882268  0.36483157  0.51752607    -0.76600
C198        C  0.26158909  0.23464292  0.54661195     1.04300
Fe199      Fe  0.00404804  0.67272379  0.58657767     1.65800
Fe200      Fe  0.13095171  0.73856791  0.56432231     1.73200
Fe201      Fe  0.06971372  0.79934338  0.60908089     1.54400
O202        O  0.00817409  0.78513526  0.56296828    -0.80400
O203        O  0.17665868  0.78503325  0.62181154    -0.78700
O204        O  0.95725861  0.70494407  0.58522139    -0.82900
O205        O  0.00464600  0.67475886  0.66105549    -0.77700
O206        O  0.11847192  0.84694106  0.55286065    -0.79500
O207        O  0.11612685  0.67612595  0.60884097    -0.82200
C208        C  0.01059374  0.71215947  0.68742653     0.98500
C209        C  0.96479366  0.74416797  0.56121116     1.06000
O210        O  0.06929126  0.73790898  0.58655145    -1.11200
O211        O  0.08957793  0.69333957  0.50346361    -0.73700
O212        O  0.00674296  0.67336397  0.51208406    -0.77100
O213        O  0.02338970  0.75691308  0.66974257    -0.77800
C214        C  0.04444121  0.67888137  0.48601890     0.97400
O215        O  0.03540990  0.62522550  0.58806259    -0.75800
O216        O  0.15276511  0.80238352  0.52034260    -0.81000
C217        C  0.17099549  0.81295522  0.65359977     1.00100
C218        C  0.14743243  0.84186304  0.52168028     1.06000
O219        O  0.13225642  0.81964626  0.65421405    -0.76600
C220        C  0.07549867  0.63256134  0.61014731     1.04300
Fe221      Fe  0.66101064  0.99378492  0.58108997     1.65800
Fe222      Fe  0.72339197  0.92921480  0.60231057     1.73200
Fe223      Fe  0.60169932  0.86762440  0.55666560     1.54400
O224        O  0.55315258  0.88031235  0.60186370    -0.80400
O225        O  0.72238513  0.88073857  0.54657624    -0.78700
O226        O  0.58193561  0.96128736  0.58289888    -0.82900
O227        O  0.65929772  0.99327616  0.50665571    -0.77700
O228        O  0.60276945  0.82092584  0.61395315    -0.79500
O229        O  0.77038858  0.99137669  0.55653127    -0.82200
C230        C  0.62876670  0.95622136  0.47942226     0.98500
C231        C  0.54993324  0.92065147  0.60496471     1.06000
O232        O  0.66202931  0.92917702  0.57981341    -1.11200
O233        O  0.72821941  0.97575218  0.66237805    -0.73700
O234        O  0.66283569  0.99196148  0.65547760    -0.77100
O235        O  0.59831195  0.91033541  0.49577881    -0.77800
C236        C  0.69640874  0.98820026  0.68079572     0.97400
O237        O  0.73995578  0.04110026  0.57974638    -0.75800
O238        O  0.68106220  0.86651417  0.64764636    -0.81000
C239        C  0.68903401  0.85243657  0.51480636     1.00100
C240        C  0.63606000  0.82714316  0.64654050     1.06000
O241        O  0.64438864  0.84743331  0.51235943    -0.76600
C242        C  0.77273475  0.03477777  0.55635699     1.04300
Fe243      Fe  0.00971064  0.66474165  0.25628782     1.65800
Fe244      Fe  0.06828174  0.59524362  0.26601781     1.73200
Fe245      Fe  0.94326727  0.53844611  0.22797462     1.54400
O246        O  0.89589686  0.55287692  0.27336316    -0.80400
O247        O  0.06055515  0.54539716  0.21055698    -0.78700
O248        O  0.93247328  0.63736446  0.26837690    -0.82900
O249        O  0.99923849  0.66496619  0.18167928    -0.77700
O250        O  0.94478446  0.49211009  0.28466059    -0.79500
O251        O  0.11238326  0.65543214  0.21692900    -0.82200
C252        C  0.96886591  0.62833555  0.15364592     0.98500
C253        C  0.89548850  0.59419928  0.28149914     1.06000
O254        O  0.00641113  0.59833710  0.25026392    -1.11200
O255        O  0.08486025  0.64470793  0.32550390    -0.73700
O256        O  0.02094098  0.66283370  0.33039672    -0.77100
O257        O  0.94002647  0.58177246  0.16864283    -0.77800
C258        C  0.05760920  0.65882165  0.34965594     0.97400
O259        O  0.08812406  0.70787418  0.24681546    -0.75800
O260        O  0.02594303  0.53350718  0.31357563    -0.81000
C261        C  0.02521051  0.51764592  0.18070221     1.00100
C262        C  0.97926512  0.49635828  0.31492753     1.06000
O263        O  0.98120586  0.51419380  0.18118570    -0.76600
C264        C  0.11643713  0.69959706  0.21848077     1.04300
Fe265      Fe  0.66905511  0.65659413  0.42922930     1.65800
Fe266      Fe  0.79619012  0.72347311  0.40210897     1.73200
Fe267      Fe  0.73880786  0.59760182  0.43825578     1.54400
O268        O  0.69115417  0.58234250  0.49993608    -0.80400
O269        O  0.82059718  0.68674623  0.35429416    -0.78700
O270        O  0.67024774  0.64437453  0.50331991    -0.82900
O271        O  0.62420589  0.57833561  0.41738229    -0.77700
O272        O  0.80137992  0.63823899  0.48409156    -0.79500
O273        O  0.75350474  0.72886762  0.34330755    -0.82200
C274        C  0.63351369  0.54924183  0.39119985     0.98500
C275        C  0.67674996  0.60969333  0.52366701     1.06000
O276        O  0.73564238  0.65963979  0.42322615    -1.11200
O277        O  0.78168048  0.76981715  0.44852198    -0.73700
O278        O  0.69724439  0.73370199  0.44222670    -0.77100
O279        O  0.67774642  0.55335187  0.39121725    -0.77800
C280        C  0.74030129  0.77059697  0.45547530     0.97400
O281        O  0.67005825  0.66895774  0.35510704    -0.75800
O282        O  0.84240862  0.72040836  0.45808155    -0.81000
C283        C  0.81625350  0.64252509  0.35149188     1.00100
C284        C  0.83842821  0.68460558  0.48651988     1.06000
O285        O  0.78757073  0.60574695  0.38026619    -0.76600
C286        C  0.70712429  0.70051242  0.32782767     1.04300
Fe287      Fe  0.65112983  0.66621068  0.75997500     1.65800
Fe288      Fe  0.59212137  0.53935965  0.73514981     1.73200
Fe289      Fe  0.52304878  0.59589151  0.77164858     1.54400
O290        O  0.55599104  0.64342903  0.83283122    -0.80400
O291        O  0.53218053  0.51669368  0.68573070    -0.78700
O292        O  0.63933473  0.66524238  0.83464386    -0.82900
O293        O  0.61672700  0.71046603  0.74853682    -0.77700
O294        O  0.50179973  0.53332855  0.81777389    -0.79500
O295        O  0.64210199  0.58192458  0.67768850    -0.82200
C296        C  0.57804087  0.70064195  0.72240318     0.98500
C297        C  0.59822752  0.65793666  0.85587820     1.06000
O298        O  0.58813581  0.59947185  0.75569349    -1.11200
O299        O  0.65208795  0.55462010  0.78345452    -0.73700
O300        O  0.70048103  0.63840682  0.77177745    -0.77100
O301        O  0.53817921  0.65637337  0.72366710    -0.77800
C302        C  0.69447332  0.59634940  0.78818850     0.97400
O303        O  0.66080255  0.66416443  0.68548633    -0.75800
O304        O  0.54107109  0.49163708  0.78919215    -0.81000
C305        C  0.49207337  0.52101152  0.68385992     1.00100
C306        C  0.50961333  0.49524527  0.81819075     1.06000
O307        O  0.48316065  0.54759961  0.71423853    -0.76600
C308        C  0.65760769  0.62705606  0.66007287     1.04300
Fe309      Fe  0.68042157  0.00223774  0.91170597     1.65800
Fe310      Fe  0.80812837  0.07248378  0.90022668     1.73200
Fe311      Fe  0.73901183  0.12820791  0.93836344     1.54400
O312        O  0.67839692  0.11298404  0.89064902    -0.80400
O313        O  0.84842666  0.12031999  0.95767991    -0.78700
O314        O  0.63000728  0.02959776  0.90331829    -0.82900
O315        O  0.67315091  0.00268437  0.98692618    -0.77700
O316        O  0.78889933  0.17623680  0.88377547    -0.79500
O317        O  0.79264912  0.01143767  0.94694648    -0.82200
C318        C  0.67734143  0.03941800  0.01368545     0.98500
C319        C  0.63608700  0.07126379  0.88566993     1.06000
O320        O  0.74321284  0.06881327  0.91644472    -1.11200
O321        O  0.77482307  0.02496912  0.83948020    -0.73700
O322        O  0.69168196  0.00451114  0.83704143    -0.77100
O323        O  0.69076189  0.08439092  0.99659584    -0.77800
C324        C  0.73248357  0.00975537  0.81653703     0.97400
O325        O  0.71558657  0.95874675  0.91806197    -0.75800
O326        O  0.82872182  0.13515750  0.85472761    -0.81000
C327        C  0.83978252  0.14692370  0.98823201     1.00100
C328        C  0.82024006  0.17280351  0.85441784     1.06000
O329        O  0.79968974  0.15121986  0.98678940    -0.76600
C330        C  0.75317211  0.96705269  0.94484198     1.04300
Fe331      Fe  0.65659263  0.00349497  0.24801059     1.65800
Fe332      Fe  0.59329096  0.06828039  0.23081105     1.73200
Fe333      Fe  0.52852652  0.94005026  0.26050502     1.54400
O334        O  0.54545927  0.89915789  0.20886975    -0.80400
O335        O  0.54273367  0.05886038  0.28684735    -0.78700
O336        O  0.62527301  0.92681920  0.23274306    -0.82900
O337        O  0.64454488  0.98572920  0.32221681    -0.77700
O338        O  0.48657728  0.95100266  0.20705577    -0.79500
O339        O  0.65246795  0.11127804  0.27991140    -0.82200
C340        C  0.60424899  0.94769897  0.34102842     0.98500
C341        C  0.58618041  0.89599137  0.20841443     1.06000
O342        O  0.59211819  0.00417912  0.24643822    -1.11200
O343        O  0.64383526  0.08257623  0.17228592    -0.73700
O344        O  0.66527523  0.02059036  0.17348988    -0.77100
O345        O  0.56278207  0.92115771  0.31704018    -0.77800
C346        C  0.66058521  0.05573417  0.15131231     0.97400
O347        O  0.70364221  0.07994638  0.26423463    -0.75800
O348        O  0.53307551  0.03255292  0.18156014    -0.81000
C349        C  0.51358813  0.02217325  0.31562316     1.00100
C350        C  0.49351726  0.98787660  0.17920673     1.06000
O351        O  0.50657616  0.97668194  0.31189420    -0.76600
C352        C  0.69553577  0.11324889  0.28390633     1.04300
Fe353      Fe  0.99041294  0.67117257  0.92007547     1.65800
Fe354      Fe  0.86222016  0.60544871  0.93532011     1.73200
Fe355      Fe  0.92452818  0.73307699  0.90350094     1.54400
O356        O  0.98263319  0.77650252  0.95356174    -0.80400
O357        O  0.81888785  0.61413793  0.88108005    -0.78700
O358        O  0.03541166  0.74788182  0.93483437    -0.82900
O359        O  0.99814376  0.68834885  0.84566770    -0.77700
O360        O  0.87293012  0.72277498  0.95794008    -0.79500
O361        O  0.87940525  0.56361080  0.88511938    -0.82200
C362        C  0.99440606  0.72472176  0.82487981     0.98500
C363        C  0.02651482  0.77996468  0.95588251     1.06000
O364        O  0.92492444  0.66984207  0.91940109    -1.11200
O365        O  0.89851153  0.58987104  0.99262429    -0.73700
O366        O  0.98040993  0.65469302  0.99474245    -0.77100
O367        O  0.97679908  0.75030885  0.84649802    -0.77800
C368        C  0.94077056  0.61749923  0.01525547     0.97400
O369        O  0.96098901  0.59450353  0.90505819    -0.75800
O370        O  0.83936809  0.64202684  0.98583786    -0.81000
C371        C  0.82553700  0.65021515  0.85203438     1.00100
C372        C  0.84495985  0.68701858  0.98778398     1.06000
O373        O  0.86504884  0.69517251  0.85349845    -0.76600
C374        C  0.92077600  0.56167462  0.88327474     1.04300
Fe375      Fe  0.67515270  0.68020320  0.09502877     1.65800
Fe376      Fe  0.60944124  0.74005464  0.06528190     1.73200
Fe377      Fe  0.73402928  0.80778288  0.10469592     1.54400
O378        O  0.74704302  0.77467426  0.16664709    -0.80400
O379        O  0.64893768  0.79951020  0.01535712    -0.78700
O380        O  0.68369657  0.69203149  0.17007944    -0.82900
O381        O  0.75361063  0.71380061  0.08926804    -0.77700
O382        O  0.69191104  0.83003839  0.14841788    -0.79500
O383        O  0.60315328  0.68952777  0.00955611    -0.82200
C384        C  0.78256852  0.75026732  0.06114701     0.98500
C385        C  0.71944954  0.73274797  0.19024430     1.06000
O386        O  0.67241304  0.74341004  0.08867564    -1.11200
O387        O  0.56305361  0.68069713  0.11418869    -0.73700
O388        O  0.59752270  0.63168774  0.10246044    -0.77100
O389        O  0.77921320  0.79067106  0.05902252    -0.77800
C390        C  0.56179671  0.63800022  0.11903568     0.97400
O391        O  0.66728202  0.67185023  0.01963861    -0.75800
O392        O  0.61191631  0.79166731  0.11721321    -0.81000
C393        C  0.69359816  0.83932657  0.01459634     1.00100
C394        C  0.64612659  0.82279285  0.14677415     1.06000
O395        O  0.72784409  0.84776183  0.04626964    -0.76600
C396        C  0.63385738  0.67500497  0.99292048     1.04300
C397        C  0.81646828  0.69778117  0.02560089    -0.15100
C398        C  0.81895043  0.74396943  0.02941391    -0.30300
H399        H  0.79031572  0.66579344  0.04896361     0.13900
H400        H  0.84445566  0.77588684  0.00568524     0.14500
C401        C  0.63390049  0.85382567  0.18021615    -0.15100
C402        C  0.59009209  0.85657624  0.17884629    -0.30300
H403        H  0.66462041  0.87846531  0.20521026     0.13900
H404        H  0.55903116  0.83248223  0.15397062     0.14500
C405        C  0.74913402  0.92435971  0.97525003    -0.15100
C406        C  0.70489210  0.87845861  0.97641565    -0.30300
H407        H  0.78026784  0.93230884  0.00052097     0.13900
H408        H  0.67376056  0.87102007  0.95129459     0.14500
C409        C  0.67404804  0.06639753  0.09878519    -0.15100
C410        C  0.66670832  0.02919842  0.06690349    -0.30300
H411        H  0.68570352  0.10487612  0.08526276     0.13900
H412        H  0.65319232  0.99027635  0.08032533     0.14500
C413        C  0.73810753  0.59756029  0.81512908    -0.15100
C414        C  0.78462628  0.64121000  0.81652339    -0.30300
H415        H  0.73083434  0.56429735  0.83717267     0.13900
H416        H  0.79144115  0.67394125  0.79382857     0.14500
C417        C  0.59880599  0.66713775  0.90912945    -0.15100
C418        C  0.63159201  0.66275727  0.94006756    -0.30300
H419        H  0.57014712  0.67584109  0.92341063     0.13900
H420        H  0.65885784  0.65206126  0.92589439     0.14500
C421        C  0.66684044  0.59995145  0.57675118    -0.15100
C422        C  0.67089609  0.63682108  0.60746089    -0.30300
H423        H  0.65764482  0.56238581  0.59096799     0.13900
H424        H  0.68208644  0.67489606  0.59310115     0.14500
C425        C  0.69520003  0.70235306  0.27551246    -0.15100
C426        C  0.73121426  0.73254352  0.24271577    -0.30300
H427        H  0.65594035  0.67670252  0.26327457     0.13900
H428        H  0.77001880  0.75978488  0.25493914     0.14500
C429        C  0.84900678  0.63612176  0.31467738    -0.15100
C430        C  0.85214519  0.59300456  0.30932641    -0.30300
H431        H  0.87538256  0.67051823  0.29407584     0.13900
H432        H  0.82560508  0.55800846  0.32898492     0.14500
C433        C  0.96860451  0.64092224  0.10109571    -0.15100
C434        C  0.94225236  0.60467356  0.06731808    -0.30300
H435        H  0.99175355  0.68095449  0.08965814     0.13900
H436        H  0.91747879  0.56489880  0.07875439     0.14500
C437        C  0.69936496  0.82056496  0.48035907    -0.15100
C438        C  0.74100901  0.81439043  0.48164854    -0.30300
H439        H  0.66788533  0.79651423  0.45576186     0.13900
H440        H  0.77356499  0.83857277  0.50502169     0.14500
C441        C  0.62470324  0.78732107  0.68474234    -0.15100
C442        C  0.58077364  0.74137334  0.68874769    -0.30300
H443        H  0.65639198  0.79556157  0.70944671     0.13900
H444        H  0.54863622  0.73208520  0.66434756     0.14500
C445        C  0.62996016  0.96853028  0.42683881    -0.15100
C446        C  0.60385545  0.93302209  0.39270821    -0.30300
H447        H  0.65400122  0.00858341  0.41569314     0.13900
H448        H  0.57805260  0.89322504  0.40350337     0.14500
C449        C  0.69767847  0.99908229  0.73345247    -0.15100
C450        C  0.73180642  0.99779465  0.76421817    -0.30300
H451        H  0.66922664  0.00836827  0.74740670     0.13900
H452        H  0.76167568  0.99057965  0.75031959     0.14500
C453        C  0.92265494  0.74072011  0.52954061    -0.15100
C454        C  0.87866093  0.69519834  0.52366201    -0.30300
H455        H  0.92952906  0.77404528  0.50782983     0.13900
H456        H  0.87287370  0.66218223  0.54533587     0.14500
C457        C  0.03425853  0.66793205  0.43344865    -0.15100
C458        C  0.06985155  0.67090037  0.40180834    -0.30300
H459        H  0.99586464  0.65717426  0.42028679     0.13900
H460        H  0.10766502  0.67951454  0.41480687     0.14500
C461        C  0.00149166  0.70171075  0.74044544    -0.15100
C462        C  0.00931188  0.73800146  0.77314766    -0.30300
H463        H  0.98748556  0.66238145  0.75300623     0.13900
H464        H  0.02123764  0.77694187  0.76080214     0.14500
C465        C  0.45368062  0.49206380  0.64546654    -0.15100
C466        C  0.40854655  0.49172112  0.64109328    -0.30300
H467        H  0.46152005  0.46751799  0.62205344     0.13900
H468        H  0.40012154  0.51565831  0.66474287     0.14500
C469        C  0.48690115  0.07760969  0.35996049    -0.15100
C470        C  0.48497323  0.03188069  0.35438212    -0.30300
H471        H  0.51240213  0.11032495  0.33703469     0.13900
H472        H  0.45874767  0.99912484  0.37692506     0.14500
C473        C  0.17937920  0.88353077  0.48622436    -0.15100
C474        C  0.18540636  0.93132698  0.48535866    -0.30300
H475        H  0.20331661  0.87539166  0.46202720     0.13900
H476        H  0.16149624  0.94050291  0.50840279     0.14500
C477        C  0.30712881  0.19050122  0.51669210    -0.15100
C478        C  0.26307478  0.19273908  0.51873529    -0.30300
H479        H  0.33975150  0.21683559  0.53902914     0.13900
H480        H  0.22979037  0.16653100  0.49711424     0.14500
C481        C  0.85358780  0.26111971  0.81854530    -0.15100
C482        C  0.85094340  0.21479579  0.81927191    -0.30300
H483        H  0.82797303  0.26814392  0.84134921     0.13900
H484        H  0.87661235  0.20860324  0.79563601     0.14500
C485        C  0.15531725  0.41662518  0.69262040    -0.15100
C486        C  0.15714411  0.37249244  0.68915273    -0.30300
H487        H  0.17921018  0.44908571  0.66874161     0.13900
H488        H  0.13269557  0.34009961  0.71291639     0.14500
C489        C  0.07371628  0.59014487  0.63977009    -0.15100
C490        C  0.02934472  0.54496361  0.64540672    -0.30300
H491        H  0.10749038  0.59801868  0.66112832     0.13900
H492        H  0.99569155  0.53755657  0.62403178     0.14500
C493        C  0.96824851  0.51961914  0.85337905    -0.15100
C494        C  0.92400078  0.52153624  0.85421315    -0.30300
H495        H  0.00002928  0.54516543  0.87697122     0.13900
H496        H  0.89190910  0.49646774  0.83075540     0.14500
C497        C  0.41675697  0.25806205  0.30589926    -0.15100
C498        C  0.37247168  0.21225572  0.30924676    -0.30300
H499        H  0.44882258  0.26660013  0.33014127     0.13900
H500        H  0.34048384  0.20431731  0.28508736     0.14500
C501        C  0.33390493  0.40130919  0.42483693    -0.15100
C502        C  0.32961496  0.36430764  0.39421305    -0.30300
H503        H  0.34350312  0.43896868  0.41055412     0.13900
H504        H  0.31806984  0.32614166  0.40853613     0.14500
C505        C  0.59217184  0.51110877  0.35890409    -0.15100
C506        C  0.54669476  0.51008200  0.35421050    -0.30300
H507        H  0.60082414  0.48703954  0.33567325     0.13900
H508        H  0.53869893  0.53469856  0.37736465     0.14500
C509        C  0.51707337  0.54785796  0.14642929    -0.15100
C510        C  0.51945548  0.59414614  0.14611052    -0.30300
H511        H  0.54256218  0.54176726  0.12244655     0.13900
H512        H  0.49399498  0.60099922  0.16930754     0.14500
C513        C  0.92033066  0.41182820  0.35699677    -0.15100
C514        C  0.96613324  0.45624566  0.35320279    -0.30300
H515        H  0.88897573  0.40445820  0.33224159     0.13900
H516        H  0.99732909  0.46252446  0.37776074     0.14500
C517        C  0.07149035  0.26478024  0.48302908    -0.15100
C518        C  0.11785762  0.30859591  0.48381995    -0.30300
H519        H  0.06476304  0.23168213  0.50505118     0.13900
H520        H  0.12375691  0.34100557  0.46107740     0.14500
C521        C  0.96191624  0.33035791  0.60874135    -0.15100
C522        C  0.93210546  0.33797464  0.57680092    -0.30300
H523        H  0.98733008  0.31690731  0.59537705     0.13900
H524        H  0.90526150  0.34967431  0.58999057     0.14500
C525        C  0.78364609  0.15666923  0.31734900    -0.15100
C526        C  0.73733095  0.15398072  0.31370025    -0.30300
H527        H  0.79170005  0.13157257  0.29499339     0.13900
H528        H  0.72877313  0.17893529  0.33567042     0.14500
C529        C  0.81280506  0.07870375  0.52735561    -0.15100
C530        C  0.81247692  0.12360914  0.52432967    -0.30300
H531        H  0.83933125  0.07263285  0.50499005     0.13900
H532        H  0.78531855  0.12882491  0.54661640     0.14500
C533        C  0.47806935  0.45288811  0.85289096    -0.15100
C534        C  0.47522525  0.40640853  0.85346817    -0.30300
H535        H  0.45214700  0.45898072  0.87624723     0.13900
H536        H  0.50100917  0.39952338  0.83077993     0.14500
C537        C  0.30389337  0.30116961  0.72680830    -0.15100
C538        C  0.26633832  0.26997008  0.75807957    -0.30300
H539        H  0.34258052  0.32661839  0.74052250     0.13900
H540        H  0.22808144  0.24307737  0.74437774     0.14500
C541        C  0.39680038  0.33167477  0.09181025    -0.15100
C542        C  0.36453170  0.33626189  0.06058907    -0.30300
H543        H  0.42465390  0.32159462  0.07803850     0.13900
H544        H  0.33810166  0.34827149  0.07431613     0.14500
C545        C  0.87852878  0.17614217  0.02617493    -0.15100
C546        C  0.92392508  0.17699075  0.02978291    -0.30300
H547        H  0.87084458  0.20076738  0.04962815     0.13900
H548        H  0.93210264  0.15280196  0.00623961     0.14500
C549        C  0.03082313  0.36905816  0.94096676    -0.15100
C550        C  0.06714066  0.40125763  0.90912461    -0.30300
H551        H  0.99216996  0.34259795  0.92780505     0.13900
H552        H  0.10524821  0.42938301  0.92221439     0.14500
C553        C  0.03358852  0.48520559  0.14557945    -0.15100
C554        C  0.07650640  0.48099635  0.14457415    -0.30300
H555        H  0.00070561  0.45978814  0.12303497     0.13900
H556        H  0.11004113  0.50663121  0.16622995     0.14500
C557        C  0.00191141  0.30439808  0.27528785    -0.15100
C558        C  0.99862220  0.26811258  0.24425908    -0.30300
H559        H  0.01313234  0.34259386  0.26125695     0.13900
H560        H  0.98945271  0.23049247  0.25832219     0.14500
C561        C  0.26032851  0.40421817  0.18735776    -0.15100
C562        C  0.21421714  0.36029173  0.18634978    -0.30300
H563        H  0.26725111  0.43704620  0.16479488     0.13900
H564        H  0.20797936  0.32810350  0.20962973     0.14500
C565        C  0.17264329  0.29313693  0.97828598    -0.15100
C566        C  0.17306266  0.24850564  0.97380064    -0.30300
H567        H  0.19703053  0.32545952  0.95441586     0.13900
H568        H  0.14922407  0.21600103  0.99766478     0.14500
C569        C  0.25697883  0.84294272  0.69357872    -0.15100
C570        C  0.21107828  0.84119108  0.69114303    -0.30300
H571        H  0.26545819  0.81986753  0.66877759     0.13900
H572        H  0.20353271  0.86493891  0.71599635     0.14500
C573        C  0.36377379  0.03502612  0.60782600    -0.15100
C574        C  0.40015346  0.06731525  0.57632735    -0.30300
H575        H  0.32533356  0.00818575  0.59436966     0.13900
H576        H  0.43811043  0.09559328  0.58963379     0.14500
C577        C  0.40445408  0.14348463  0.81545150    -0.15100
C578        C  0.36140149  0.14746774  0.81506862    -0.30300
H579        H  0.43657880  0.16795057  0.83915455     0.13900
H580        H  0.32996545  0.12276778  0.79074248     0.14500
C581        C  0.54743151  0.02529342  0.85306020    -0.15100
C582        C  0.59285755  0.06977262  0.85719820    -0.30300
H583        H  0.54145311  0.99192492  0.87427578     0.13900
H584        H  0.59963978  0.10371789  0.83659583     0.14500
C585        C  0.51002070  0.92149024  0.63669156    -0.15100
C586        C  0.50923794  0.96562983  0.64369075    -0.30300
H587        H  0.48489049  0.88737316  0.65819161     0.13900
H588        H  0.53477406  0.99946874  0.62199787     0.14500
C589        C  0.45276426  0.97978226  0.14421546    -0.15100
C590        C  0.40737340  0.93513293  0.14131813    -0.30300
H591        H  0.45855856  0.01332322  0.12348412     0.13900
H592        H  0.40131565  0.90126337  0.16156622     0.14500
C593        C  0.26876314  0.00335331  0.24337913    -0.15100
C594        C  0.29782745  0.99490822  0.27550009    -0.30300
H595        H  0.24251697  0.01582439  0.25654901     0.13900
H596        H  0.32259313  0.98054390  0.26245881     0.14500
C597        C  0.24734791  0.07538681  0.02698122    -0.15100
C598        C  0.29248042  0.12018935  0.02229936    -0.30300
H599        H  0.21515393  0.06701020  0.00297861     0.13900
H600        H  0.32455927  0.12786582  0.04622898     0.14500
C601        C  0.33404950  0.93820366  0.90939137    -0.15100
C602        C  0.33616392  0.97519039  0.93895148    -0.30300
H603        H  0.32602237  0.90138870  0.92464948     0.13900
H604        H  0.34615806  0.01267188  0.92387611     0.14500
C605        C  0.06873270  0.82080793  0.98495087    -0.15100
C606        C  0.11612373  0.82558605  0.98445908    -0.30300
H607        H  0.05995016  0.84369136  0.00971256     0.13900
H608        H  0.12447804  0.80285035  0.95905272     0.14500
C609        C  0.15333076  0.74264355  0.18662771    -0.15100
C610        C  0.15516672  0.78866938  0.18837619    -0.30300
H611        H  0.17527067  0.73543515  0.15918624     0.13900
H612        H  0.13250018  0.79493616  0.21577530     0.14500
loop_ 
_geom_bond_atom_site_label_1 
_geom_bond_atom_site_label_2 
_geom_bond_distance 
_geom_bond_site_symmetry_2 
_ccdc_geom_bond_type 
Fe1          O17   2.073   1_545  S
Fe1           O7   2.043   1_545  S
Fe1          O14   2.054       .  S
Fe1           O6   2.070       .  S
Fe1          O12   1.944   1_545  S
Fe2           O5   2.074       .  S
Fe2           O9   2.088       .  S
Fe2          O13   2.086       .  S
Fe2          O18   2.058       .  S
Fe2          O12   1.941       .  S
Fe3          O21   2.073       .  S
Fe3           O8   2.069       .  S
Fe3          O15   2.079       .  S
Fe3           O4   2.083       .  S
Fe3          O12   1.940       .  S
O4           C11   1.279   1_554  A
O5           C19   1.276       .  A
O6           C11   1.278   1_544  A
O7           C10   1.259       .  A
O8           C20   1.271       .  A
O9           C22   1.276       .  A
C10          O15   1.266       .  A
C10         C590   1.476       .  S
C11         C602   1.477       .  S
O13          C16   1.267   1_565  A
O14          C16   1.259       .  A
C16         C597   1.481       .  S
O17          C22   1.277       .  A
O18          C20   1.267       .  A
C19          O21   1.273       .  A
C19         C610   1.475       .  S
C20         C606   1.472   1_554  S
C22         C593   1.474   1_565  S
Fe23         O39   2.046       .  S
Fe23         O29   2.057   1_565  S
Fe23         O36   2.067       .  S
Fe23         O28   2.041       .  S
Fe23         O34   1.950       .  S
Fe24         O27   2.068       .  S
Fe24         O31   2.106       .  S
Fe24         O35   2.083       .  S
Fe24         O40   2.081       .  S
Fe24         O34   1.941       .  S
Fe25         O43   2.093       .  S
Fe25         O30   2.066       .  S
Fe25         O37   2.089       .  S
Fe25         O26   2.107       .  S
Fe25         O34   1.940   1_545  S
O26          C33   1.285       .  A
O27          C41   1.273   1_565  A
O28          C33   1.273   1_565  A
O29          C32   1.261       .  A
O30          C42   1.270   1_545  A
O31          C44   1.282       .  A
C32          O37   1.266       .  A
C32         C577   1.488       .  S
C33         C573   1.473       .  S
O35          C38   1.264       .  A
O36          C38   1.262       .  A
C38         C569   1.488       .  S
O39          C44   1.273       .  A
O40          C42   1.272       .  A
C41          O43   1.276       .  A
C41         C581   1.483       .  S
C42         C586   1.480       .  S
C44         C601   1.472       .  S
Fe45         O61   2.060       .  S
Fe45         O51   2.057   1_455  S
Fe45         O58   2.047       .  S
Fe45         O50   2.066       .  S
Fe45         O56   1.948       .  S
Fe46         O49   2.066       .  S
Fe46         O53   2.095       .  S
Fe46         O57   2.084       .  S
Fe46         O62   2.082       .  S
Fe46         O56   1.948       .  S
Fe47         O65   2.070       .  S
Fe47         O52   2.064       .  S
Fe47         O59   2.073       .  S
Fe47         O48   2.096       .  S
Fe47         O56   1.947       .  S
O48          C55   1.278       .  A
O49          C63   1.269       .  A
O50          C55   1.277       .  A
O51          C54   1.261       .  A
O52          C64   1.273       .  A
O53          C66   1.282   1_554  A
C54          O59   1.264   1_655  A
C54         C546   1.478       .  S
C55         C558   1.478   1_455  S
O57          C60   1.266       .  A
O58          C60   1.260       .  A
C60         C554   1.481       .  S
O61          C66   1.276   1_554  A
O62          C64   1.275       .  A
C63          O65   1.268       .  A
C63         C565   1.476   1_554  S
C64         C562   1.475       .  S
C66         C549   1.477       .  S
Fe67         O83   2.058       .  S
Fe67         O73   2.058       .  S
Fe67         O80   2.060       .  S
Fe67         O72   2.051       .  S
Fe67         O78   1.949       .  S
Fe68         O71   2.064       .  S
Fe68         O75   2.079       .  S
Fe68         O79   2.093       .  S
Fe68         O84   2.069       .  S
Fe68         O78   1.944       .  S
Fe69         O87   2.072       .  S
Fe69         O74   2.089       .  S
Fe69         O81   2.099       .  S
Fe69         O70   2.091       .  S
Fe69         O78   1.946       .  S
O70          C77   1.268       .  A
O71          C85   1.268       .  A
O72          C77   1.261       .  A
O73          C76   1.275   1_556  A
O74          C86   1.275       .  A
O75          C88   1.264       .  A
C76          O81   1.282   1_554  A
C76         C542   1.479       .  S
C77         C534   1.487       .  S
O79          C82   1.277       .  A
O80          C82   1.276       .  A
C82         C538   1.471       .  S
O83          C88   1.261       .  A
O84          C86   1.274       .  A
C85          O87   1.271       .  A
C85         C598   1.476   1_556  S
C86         C578   1.480       .  S
C88         C566   1.482       .  S
Fe89        O105   2.064       .  S
Fe89         O95   2.048   1_655  S
Fe89        O102   2.057       .  S
Fe89         O94   2.061       .  S
Fe89        O100   1.948       .  S
Fe90         O93   2.079       .  S
Fe90         O97   2.098       .  S
Fe90        O101   2.096       .  S
Fe90        O106   2.067       .  S
Fe90        O100   1.945       .  S
Fe91        O109   2.080       .  S
Fe91         O96   2.069       .  S
Fe91        O103   2.090       .  S
Fe91         O92   2.102       .  S
Fe91        O100   1.946       .  S
O92          C99   1.284       .  A
O93         C107   1.277       .  A
O94          C99   1.277       .  A
O95          C98   1.260       .  A
O96         C108   1.270       .  A
O97         C110   1.278       .  A
C98         O103   1.266   1_455  A
C98         C517   1.488       .  S
C99         C557   1.481   1_655  S
O101        C104   1.268       .  A
O102        C104   1.260       .  A
C104        C513   1.490       .  S
O105        C110   1.277       .  A
O106        C108   1.268       .  A
C107        O109   1.275       .  A
C107        C530   1.480       .  S
C108        C525   1.476       .  S
C110        C522   1.476       .  S
Fe111       O127   2.058       .  S
Fe111       O117   2.059       .  S
Fe111       O124   2.063       .  S
Fe111       O116   2.049       .  S
Fe111       O122   1.948       .  S
Fe112       O115   2.076       .  S
Fe112       O119   2.084       .  S
Fe112       O123   2.097       .  S
Fe112       O128   2.071       .  S
Fe112       O122   1.942       .  S
Fe113       O131   2.071       .  S
Fe113       O118   2.076       .  S
Fe113       O125   2.094       .  S
Fe113       O114   2.084       .  S
Fe113       O122   1.946       .  S
O114        C121   1.265       .  A
O115        C129   1.270       .  A
O116        C121   1.260       .  A
O117        C120   1.276       .  A
O118        C130   1.273       .  A
O119        C132   1.266       .  A
C120        O125   1.282       .  A
C120        C502   1.476       .  S
C121        C561   1.483       .  S
O123        C126   1.278       .  A
O124        C126   1.276       .  A
C126        C541   1.475       .  S
O127        C132   1.260       .  A
O128        C130   1.275       .  A
C129        O131   1.271       .  A
C129        C506   1.482       .  S
C130        C509   1.475       .  S
C132        C497   1.483       .  S
Fe133       O149   2.057   1_455  S
Fe133       O139   2.059       .  S
Fe133       O146   2.048   1_455  S
Fe133       O138   2.061       .  S
Fe133       O144   1.950       .  S
Fe134       O137   2.066       .  S
Fe134       O141   2.096       .  S
Fe134       O145   2.087       .  S
Fe134       O150   2.078       .  S
Fe134       O144   1.952   1_655  S
Fe135       O153   2.070       .  S
Fe135       O140   2.076       .  S
Fe135       O147   2.089       .  S
Fe135       O136   2.097       .  S
Fe135       O144   1.945       .  S
O136        C143   1.278       .  A
O137        C151   1.269   1_655  A
O138        C143   1.276       .  A
O139        C142   1.260       .  A
O140        C152   1.276   1_455  A
O141        C154   1.282       .  A
C142        O147   1.267       .  A
C142        C485   1.487       .  S
C143        C550   1.475       .  S
O145        C148   1.265       .  A
O146        C148   1.260       .  A
C148        C481   1.485       .  S
O149        C154   1.275       .  A
O150        C152   1.274       .  A
C151        O153   1.269       .  A
C151        C490   1.478       .  S
C152        C493   1.478       .  S
C154        C521   1.479       .  S
Fe155       O171   2.058       .  S
Fe155       O161   2.059       .  S
Fe155       O168   2.059   1_545  S
Fe155       O160   2.058       .  S
Fe155       O166   1.953       .  S
Fe156       O159   2.074       .  S
Fe156       O163   2.099       .  S
Fe156       O167   2.093       .  S
Fe156       O172   2.088       .  S
Fe156       O166   1.946       .  S
Fe157       O175   2.065       .  S
Fe157       O162   2.073       .  S
Fe157       O169   2.078       .  S
Fe157       O158   2.090       .  S
Fe157       O166   1.947       .  S
O158        C165   1.276       .  A
O159        C173   1.271       .  A
O160        C165   1.276       .  A
O161        C164   1.261       .  A
O162        C174   1.276       .  A
O163        C176   1.283       .  A
C164        O169   1.265       .  A
C164        C469   1.480       .  S
C165        C574   1.471       .  S
O167        C170   1.267   1_545  A
O168        C170   1.263       .  A
C170        C474   1.492       .  S
O171        C176   1.274       .  A
O172        C174   1.275       .  A
C173        O175   1.267       .  A
C173        C498   1.479       .  S
C174        C477   1.482       .  S
C176        C594   1.481   1_545  S
Fe177       O193   2.051       .  S
Fe177       O183   2.056       .  S
Fe177       O190   2.054       .  S
Fe177       O182   2.057       .  S
Fe177       O188   1.951       .  S
Fe178       O181   2.085       .  S
Fe178       O185   2.097       .  S
Fe178       O189   2.097       .  S
Fe178       O194   2.080       .  S
Fe178       O188   1.942       .  S
Fe179       O197   2.069       .  S
Fe179       O184   2.070       .  S
Fe179       O191   2.098       .  S
Fe179       O180   2.079       .  S
Fe179       O188   1.943       .  S
O180        C187   1.265       .  A
O181        C195   1.275       .  A
O182        C187   1.260       .  A
O183        C186   1.275       .  A
O184        C196   1.269       .  A
O185        C198   1.269       .  A
C186        O191   1.279       .  A
C186        C501   1.473       .  S
C187        C466   1.480       .  S
O189        C192   1.283       .  A
O190        C192   1.275       .  A
C192        C537   1.476       .  S
O193        C198   1.260       .  A
O194        C196   1.273       .  A
C195        O197   1.275       .  A
C195        C518   1.479       .  S
C196        C486   1.483       .  S
C198        C478   1.490       .  S
Fe199       O215   2.060       .  S
Fe199       O205   2.031       .  S
Fe199       O212   2.032       .  S
Fe199       O204   2.060   1_455  S
Fe199       O210   1.953       .  S
Fe200       O203   2.094       .  S
Fe200       O207   2.078       .  S
Fe200       O211   2.113       .  S
Fe200       O216   2.062       .  S
Fe200       O210   1.932       .  S
Fe201       O219   2.063       .  S
Fe201       O206   2.100       .  S
Fe201       O213   2.119       .  S
Fe201       O202   2.092       .  S
Fe201       O210   1.938       .  S
O202        C209   1.266   1_455  A
O203        C217   1.276       .  A
O204        C209   1.260       .  A
O205        C208   1.270       .  A
O206        C218   1.276       .  A
O207        C220   1.264       .  A
C208        O213   1.288       .  A
C208        C461   1.473       .  S
C209        C453   1.489       .  S
O211        C214   1.287       .  A
O212        C214   1.271       .  A
C214        C457   1.469       .  S
O215        C220   1.260       .  A
O216        C218   1.271       .  A
C217        O219   1.271       .  A
C217        C570   1.482       .  S
C218        C473   1.484       .  S
C220        C489   1.481       .  S
Fe221       O237   2.060   1_565  S
Fe221       O227   2.029       .  S
Fe221       O234   2.029       .  S
Fe221       O226   2.060       .  S
Fe221       O232   1.952       .  S
Fe222       O225   2.097       .  S
Fe222       O229   2.089       .  S
Fe222       O233   2.113       .  S
Fe222       O238   2.064       .  S
Fe222       O232   1.936       .  S
Fe223       O241   2.058       .  S
Fe223       O228   2.103       .  S
Fe223       O235   2.124       .  S
Fe223       O224   2.080       .  S
Fe223       O232   1.935       .  S
O224        C231   1.263       .  A
O225        C239   1.275       .  A
O226        C231   1.260       .  A
O227        C230   1.270       .  A
O228        C240   1.278       .  A
O229        C242   1.267   1_565  A
C230        O235   1.289       .  A
C230        C445   1.474       .  S
C231        C585   1.484       .  S
O233        C236   1.286       .  A
O234        C236   1.269       .  A
C236        C449   1.470       .  S
O237        C242   1.261       .  A
O238        C240   1.272       .  A
C239        O241   1.269       .  A
C239        C437   1.481       .  S
C240        C441   1.486       .  S
C242        C529   1.486       .  S
Fe243       O259   2.051       .  S
Fe243       O249   2.058   1_455  S
Fe243       O256   2.053       .  S
Fe243       O248   2.055   1_455  S
Fe243       O254   1.950       .  S
Fe244       O247   2.061       .  S
Fe244       O251   2.093       .  S
Fe244       O255   2.088       .  S
Fe244       O260   2.084       .  S
Fe244       O254   1.947       .  S
Fe245       O263   2.068       .  S
Fe245       O250   2.088       .  S
Fe245       O257   2.102       .  S
Fe245       O246   2.084       .  S
Fe245       O254   1.945   1_655  S
O246        C253   1.265       .  A
O247        C261   1.265       .  A
O248        C253   1.261       .  A
O249        C252   1.275       .  A
O250        C262   1.277       .  A
O251        C264   1.268       .  A
C252        O257   1.284       .  A
C252        C433   1.481       .  S
C253        C430   1.487       .  S
O255        C258   1.274       .  A
O256        C258   1.275       .  A
C258        C458   1.469       .  S
O259        C264   1.260       .  A
O260        C262   1.279   1_455  A
C261        O263   1.268   1_455  A
C261        C553   1.475       .  S
C262        C514   1.485       .  S
C264        C609   1.484       .  S
Fe265       O281   2.050       .  S
Fe265       O271   2.066       .  S
Fe265       O278   2.058       .  S
Fe265       O270   2.054       .  S
Fe265       O276   1.955       .  S
Fe266       O269   2.064       .  S
Fe266       O273   2.105       .  S
Fe266       O277   2.082       .  S
Fe266       O282   2.092       .  S
Fe266       O276   1.949       .  S
Fe267       O285   2.080       .  S
Fe267       O272   2.070       .  S
Fe267       O279   2.083       .  S
Fe267       O268   2.099       .  S
Fe267       O276   1.950       .  S
O268        C275   1.278       .  A
O269        C283   1.268       .  A
O270        C275   1.274       .  A
O271        C274   1.263       .  A
O272        C284   1.275       .  A
O273        C286   1.285       .  A
C274        O279   1.266       .  A
C274        C505   1.486       .  S
C275        C421   1.475       .  S
O277        C280   1.264       .  A
O278        C280   1.262       .  A
C280        C438   1.487       .  S
O281        C286   1.273       .  A
O282        C284   1.277       .  A
C283        O285   1.270       .  A
C283        C429   1.481       .  S
C284        C454   1.482       .  S
C286        C425   1.478       .  S
Fe287       O303   2.056       .  S
Fe287       O293   2.068       .  S
Fe287       O300   2.051       .  S
Fe287       O292   2.063       .  S
Fe287       O298   1.950       .  S
Fe288       O291   2.070       .  S
Fe288       O295   2.095       .  S
Fe288       O299   2.086       .  S
Fe288       O304   2.084       .  S
Fe288       O298   1.949       .  S
Fe289       O307   2.065       .  S
Fe289       O294   2.070       .  S
Fe289       O301   2.088       .  S
Fe289       O290   2.098       .  S
Fe289       O298   1.945       .  S
O290        C297   1.279       .  A
O291        C305   1.271       .  A
O292        C297   1.275       .  A
O293        C296   1.263       .  A
O294        C306   1.274       .  A
O295        C308   1.281       .  A
C296        O301   1.266       .  A
C296        C442   1.493       .  S
C297        C417   1.477       .  S
O299        C302   1.267       .  A
O300        C302   1.261       .  A
C302        C413   1.483       .  S
O303        C308   1.275       .  A
O304        C306   1.274       .  A
C305        O307   1.269       .  A
C305        C465   1.477       .  S
C306        C533   1.479       .  S
C308        C422   1.476       .  S
Fe309       O325   2.051   1_545  S
Fe309       O315   2.062       .  S
Fe309       O322   2.058       .  S
Fe309       O314   2.058       .  S
Fe309       O320   1.945       .  S
Fe310       O313   2.063       .  S
Fe310       O317   2.077       .  S
Fe310       O321   2.090       .  S
Fe310       O326   2.066       .  S
Fe310       O320   1.940       .  S
Fe311       O329   2.067       .  S
Fe311       O316   2.084       .  S
Fe311       O323   2.100       .  S
Fe311       O312   2.090       .  S
Fe311       O320   1.943       .  S
O312        C319   1.267       .  A
O313        C327   1.268       .  A
O314        C319   1.261       .  A
O315        C318   1.276   1_556  A
O316        C328   1.275       .  A
O317        C330   1.264   1_545  A
C318        O323   1.284   1_554  A
C318        C410   1.482       .  S
C319        C582   1.490       .  S
O321        C324   1.277       .  A
O322        C324   1.278       .  A
C324        C450   1.470   1_545  S
O325        C330   1.258       .  A
O326        C328   1.274       .  A
C327        O329   1.270       .  A
C327        C545   1.475   1_556  S
C328        C482   1.476       .  S
C330        C405   1.475       .  S
Fe331       O347   2.053       .  S
Fe331       O337   2.074   1_545  S
Fe331       O344   2.077       .  S
Fe331       O336   2.047   1_545  S
Fe331       O342   1.940       .  S
Fe332       O335   2.066       .  S
Fe332       O339   2.080       .  S
Fe332       O343   2.088       .  S
Fe332       O348   2.069       .  S
Fe332       O342   1.949       .  S
Fe333       O351   2.081       .  S
Fe333       O338   2.053       .  S
Fe333       O345   2.078       .  S
Fe333       O334   2.092       .  S
Fe333       O342   1.949   1_565  S
O334        C341   1.269       .  A
O335        C349   1.272       .  A
O336        C341   1.260       .  A
O337        C340   1.279       .  A
O338        C350   1.266       .  A
O339        C352   1.265       .  A
C340        O345   1.272       .  A
C340        C446   1.472       .  S
C341        C402   1.485       .  S
O343        C346   1.277       .  A
O344        C346   1.279       .  A
C346        C409   1.477       .  S
O347        C352   1.261       .  A
O348        C350   1.271   1_545  A
C349        O351   1.276   1_545  A
C349        C470   1.478       .  S
C350        C589   1.471       .  S
C352        C526   1.483       .  S
Fe353       O369   2.052       .  S
Fe353       O359   2.074       .  S
Fe353       O366   2.078       .  S
Fe353       O358   2.043   1_655  S
Fe353       O364   1.940       .  S
Fe354       O357   2.067       .  S
Fe354       O361   2.090       .  S
Fe354       O365   2.083       .  S
Fe354       O370   2.080       .  S
Fe354       O364   1.951       .  S
Fe355       O373   2.076       .  S
Fe355       O360   2.049       .  S
Fe355       O367   2.076       .  S
Fe355       O356   2.082       .  S
Fe355       O364   1.948       .  S
O356        C363   1.266   1_655  A
O357        C371   1.270       .  A
O358        C363   1.259       .  A
O359        C362   1.280       .  A
O360        C372   1.267       .  A
O361        C374   1.269       .  A
C362        O367   1.273       .  A
C362        C462   1.470   1_655  S
C363        C605   1.479       .  S
O365        C368   1.274   1_556  A
O366        C368   1.278   1_556  A
C368        C434   1.475       .  S
O369        C374   1.261       .  A
O370        C372   1.274       .  A
C371        O373   1.274       .  A
C371        C414   1.477       .  S
C372        C397   1.473   1_556  S
C374        C494   1.486       .  S
Fe375       O391   2.070       .  S
Fe375       O381   2.046       .  S
Fe375       O388   2.042       .  S
Fe375       O380   2.072       .  S
Fe375       O386   1.943       .  S
Fe376       O379   2.072       .  S
Fe376       O383   2.091       .  S
Fe376       O387   2.092       .  S
Fe376       O392   2.075       .  S
Fe376       O386   1.944       .  S
Fe377       O395   2.052       .  S
Fe377       O382   2.073       .  S
Fe377       O389   2.083       .  S
Fe377       O378   2.088       .  S
Fe377       O386   1.940       .  S
O378        C385   1.276       .  A
O379        C393   1.271       .  A
O380        C385   1.280       .  A
O381        C384   1.256       .  A
O382        C394   1.276       .  A
O383        C396   1.281   1_554  A
C384        O389   1.265       .  A
C384        C398   1.475       .  S
C385        C426   1.474       .  S
O387        C390   1.267       .  A
O388        C390   1.259       .  A
C390        C510   1.484       .  S
O391        C396   1.278   1_554  A
O392        C394   1.273       .  A
C393        O395   1.266       .  A
C393        C406   1.471   1_554  S
C394        C401   1.475       .  S
C396        C418   1.481       .  S
C397        C398   1.353       .  D
C397        H399   1.087       .  S
C398        H400   1.086       .  S
C401        C402   1.354       .  D
C401        H403   1.087       .  S
C402        H404   1.086       .  S
C405        C406   1.351       .  D
C405        H407   1.086   1_556  S
C406        H408   1.087       .  S
C409        C410   1.346       .  D
C409        H411   1.087       .  S
C410        H412   1.087   1_545  S
C413        C414   1.353       .  D
C413        H415   1.086       .  S
C414        H416   1.087       .  S
C417        C418   1.349       .  D
C417        H419   1.086       .  S
C418        H420   1.086       .  S
C421        C422   1.346       .  D
C421        H423   1.086       .  S
C422        H424   1.087       .  S
C425        C426   1.340       .  D
C425        H427   1.087       .  S
C426        H428   1.087       .  S
C429        C430   1.350       .  D
C429        H431   1.087       .  S
C430        H432   1.086       .  S
C433        C434   1.343       .  D
C433        H435   1.087       .  S
C434        H436   1.087       .  S
C437        C438   1.349       .  D
C437        H439   1.088       .  S
C438        H440   1.086       .  S
C441        C442   1.351       .  D
C441        H443   1.087       .  S
C442        H444   1.086       .  S
C445        C446   1.337       .  D
C445        H447   1.088   1_565  S
C446        H448   1.087       .  S
C449        C450   1.337       .  D
C449        H451   1.088   1_565  S
C450        H452   1.087       .  S
C453        C454   1.352       .  D
C453        H455   1.086       .  S
C454        H456   1.087       .  S
C457        C458   1.338       .  D
C457        H459   1.088   1_455  S
C458        H460   1.087       .  S
C461        C462   1.337       .  D
C461        H463   1.088   1_455  S
C462        H464   1.087       .  S
C465        C466   1.351       .  D
C465        H467   1.086       .  S
C466        H468   1.086       .  S
C469        C470   1.352       .  D
C469        H471   1.086       .  S
C470        H472   1.087   1_545  S
C473        C474   1.351       .  D
C473        H475   1.088       .  S
C474        H476   1.086       .  S
C477        C478   1.354       .  D
C477        H479   1.087       .  S
C478        H480   1.086       .  S
C481        C482   1.351       .  D
C481        H483   1.086       .  S
C482        H484   1.087       .  S
C485        C486   1.354       .  D
C485        H487   1.086       .  S
C486        H488   1.087       .  S
C489        C490   1.349       .  D
C489        H491   1.086       .  S
C490        H492   1.087   1_455  S
C493        C494   1.354       .  D
C493        H495   1.087   1_655  S
C494        H496   1.086       .  S
C497        C498   1.353       .  D
C497        H499   1.086       .  S
C498        H500   1.087       .  S
C501        C502   1.345       .  D
C501        H503   1.086       .  S
C502        H504   1.087       .  S
C505        C506   1.352       .  D
C505        H507   1.086       .  S
C506        H508   1.086       .  S
C509        C510   1.353       .  D
C509        H511   1.087       .  S
C510        H512   1.086       .  S
C513        C514   1.355       .  D
C513        H515   1.086       .  S
C514        H516   1.087       .  S
C517        C518   1.352       .  D
C517        H519   1.086       .  S
C518        H520   1.087       .  S
C521        C522   1.345       .  D
C521        H523   1.087       .  S
C522        H524   1.086       .  S
C525        C526   1.351       .  D
C525        H527   1.086       .  S
C526        H528   1.086       .  S
C529        C530   1.353       .  D
C529        H531   1.086       .  S
C530        H532   1.087       .  S
C533        C534   1.352       .  D
C533        H535   1.087       .  S
C534        H536   1.086       .  S
C537        C538   1.343       .  D
C537        H539   1.087       .  S
C538        H540   1.087       .  S
C541        C542   1.345       .  D
C541        H543   1.086       .  S
C542        H544   1.086       .  S
C545        C546   1.349       .  D
C545        H547   1.086       .  S
C546        H548   1.086       .  S
C549        C550   1.345       .  D
C549        H551   1.087   1_455  S
C550        H552   1.086       .  S
C553        C554   1.352       .  D
C553        H555   1.087       .  S
C554        H556   1.086       .  S
C557        C558   1.345   1_455  D
C557        H559   1.087       .  S
C558        H560   1.086       .  S
C561        C562   1.350       .  D
C561        H563   1.086       .  S
C562        H564   1.087       .  S
C565        C566   1.350       .  D
C565        H567   1.087       .  S
C566        H568   1.086       .  S
C569        C570   1.350       .  D
C569        H571   1.086       .  S
C570        H572   1.087       .  S
C573        C574   1.341       .  D
C573        H575   1.088       .  S
C574        H576   1.087       .  S
C577        C578   1.352       .  D
C577        H579   1.086       .  S
C578        H580   1.087       .  S
C581        C582   1.352       .  D
C581        H583   1.087   1_545  S
C582        H584   1.086       .  S
C585        C586   1.349       .  D
C585        H587   1.086       .  S
C586        H588   1.087       .  S
C589        C590   1.351       .  D
C589        H591   1.086   1_565  S
C590        H592   1.086       .  S
C593        C594   1.344   1_545  D
C593        H595   1.086       .  S
C594        H596   1.087       .  S
C597        C598   1.352       .  D
C597        H599   1.086       .  S
C598        H600   1.087       .  S
C601        C602   1.349       .  D
C601        H603   1.086       .  S
C602        H604   1.086   1_565  S
C605        C606   1.352       .  D
C605        H607   1.086   1_556  S
C606        H608   1.087       .  S
C609        C610   1.354       .  D
C609        H611   1.086       .  S
C610        H612   1.087       .  S
