geometry optimzed in LAMMPS
_audit_creation_date              2020-12-01 
_audit_creation_method            'lammps2cif' 
_symmetry_space_group_name_H-M    'P1' 
_symmetry_Int_Tables_number       1 
_symmetry_cell_setting            triclinic 
loop_ 
_symmetry_equiv_pos_as_xyz 
  x,y,z 
_cell_length_a                    34.4025573 
_cell_length_b                    34.333625225038766 
_cell_length_c                    26.850136123756727 
_cell_angle_alpha                 89.56785224623802 
_cell_angle_beta                  89.60786336812367 
_cell_angle_gamma                 89.96072817921642 
loop_ 
_atom_site_label 
_atom_site_type_symbol 
_atom_site_fract_x 
_atom_site_fract_y 
_atom_site_fract_z 
_atom_site_charge 
O1          O  0.78953881  0.80902226  0.42846604    -0.85100
O2          O  0.70914614  0.80928183  0.44085572    -0.82200
C3          C  0.70798198  0.83217096  0.47720430     0.98300
O4          O  0.71384901  0.86809677  0.47021527    -0.82200
O5          O  0.74201315  0.93550442  0.42731988    -0.84800
C6          C  0.77767775  0.93874187  0.43665107     1.02900
O7          O  0.80228797  0.91584774  0.41703129    -0.77600
O8          O  0.82710433  0.84408349  0.37895847    -0.77800
C9          C  0.82288491  0.82104783  0.41553304     1.02800
O10         O  0.77902704  0.80145445  0.32321125    -0.85100
O11         O  0.69927290  0.81285848  0.33597523    -0.82200
C12         C  0.66827808  0.83094129  0.34688733     0.98400
O13         O  0.66788585  0.85603374  0.38106836    -0.82200
O14         O  0.70268429  0.91990363  0.33733182    -0.84800
C15         C  0.72963066  0.93895941  0.31615636     1.02800
O16         O  0.76483625  0.93177959  0.32516732    -0.77600
O17         O  0.78388854  0.85909537  0.28883314    -0.77800
C18         C  0.78430264  0.82242046  0.28503083     1.02800
Cr19       Cr  0.74465443  0.81219761  0.38190289     1.93700
Cr20       Cr  0.70963485  0.89243446  0.40233462     1.93200
Cr21       Cr  0.79123240  0.88575708  0.35442624     1.39100
O22         O  0.74853011  0.86378986  0.37940136    -1.22900
O23         O  0.69107194  0.70806099  0.88834178    -0.85100
O24         O  0.75057787  0.70257224  0.95480325    -0.82200
C25         C  0.77969718  0.69094926  0.97842961     0.98300
O26         O  0.80094282  0.66415595  0.96059256    -0.82200
O27         O  0.75296449  0.59916659  0.95384349    -0.84800
C28         C  0.72736010  0.57617198  0.93818168     1.02900
O29         O  0.71369315  0.57979728  0.89449017    -0.77600
O30         O  0.67284947  0.64684863  0.89254374    -0.77800
C31         C  0.66583536  0.68224777  0.89907173     1.02800
O32         O  0.74892672  0.70957446  0.80960106    -0.85100
O33         O  0.80860857  0.70827303  0.87559326    -0.82200
C34         C  0.83225312  0.68387049  0.85680466     0.98400
O35         O  0.82570502  0.64791827  0.85948644    -0.82200
O36         O  0.78579174  0.57908543  0.85942599    -0.84800
C37         C  0.77198163  0.57603770  0.81595118     1.02800
O38         O  0.74828981  0.60105667  0.79993291    -0.77600
O39         O  0.70211105  0.66799608  0.79505896    -0.77800
C40         C  0.72210543  0.69757747  0.78230872     1.02800
Cr41       Cr  0.74978231  0.70300167  0.88191099     1.93700
Cr42       Cr  0.78847238  0.62480596  0.90634653     1.93200
Cr43       Cr  0.71230194  0.62613119  0.84762598     1.39100
O44         O  0.75002479  0.65141932  0.87850480    -1.22900
O45         O  0.19670194  0.76636318  0.69869020    -0.85100
O46         O  0.20033441  0.71029771  0.62796667    -0.82200
C47         C  0.17619057  0.68479511  0.64341754     0.98300
O48         O  0.14025855  0.69030218  0.63947293    -0.82200
O49         O  0.07083985  0.72768446  0.64404405    -0.84800
C50         C  0.06744229  0.73911681  0.68875622     1.02900
O51         O  0.09128712  0.76309733  0.70635392    -0.77600
O52         O  0.15481905  0.81291885  0.71356270    -0.77800
C53         C  0.18385138  0.79253487  0.72652506     1.02800
O54         O  0.19506083  0.82840807  0.62491674    -0.85100
O55         O  0.19446083  0.77265937  0.55380049    -0.82200
C56         C  0.18386468  0.74511441  0.52682592     0.98400
O57         O  0.15719308  0.72218759  0.54160947    -0.82200
O58         O  0.08985529  0.76720779  0.55209471    -0.84800
C59         C  0.06442094  0.78905989  0.57122024     1.02800
O60         O  0.06754280  0.80018803  0.61593046    -0.77600
O61         O  0.13333410  0.84372282  0.61729511    -0.77800
C62         C  0.16858732  0.85223887  0.61209026     1.02800
Cr63       Cr  0.19267234  0.76924697  0.62639977     1.93700
Cr64       Cr  0.11658250  0.72959651  0.59631139     1.93200
Cr65       Cr  0.11405407  0.80237465  0.66103529     1.39100
O66         O  0.14122898  0.76706697  0.62799781    -1.22900
O67         O  0.29748491  0.79443994  0.06488328    -0.85100
O68         O  0.30239820  0.71479771  0.07964553    -0.82200
C69         C  0.31561261  0.68232080  0.09393602     0.98300
O70         O  0.33941187  0.68024078  0.12957611    -0.82200
O71         O  0.40744238  0.70870495  0.08454829    -0.84800
C72         C  0.42954743  0.73416210  0.06494964     1.02900
O73         O  0.42523019  0.76982723  0.07454863    -0.77600
O74         O  0.35622290  0.79398672  0.03340620    -0.77800
C75         C  0.31998800  0.79743191  0.02783709     1.02800
O76         O  0.30243775  0.80555752  0.16986399    -0.85100
O77         O  0.29699851  0.72620883  0.18490964    -0.82200
C78         C  0.31911986  0.72471736  0.22209905     0.98400
O79         O  0.35543813  0.72758021  0.21604862    -0.82200
O80         O  0.42556167  0.74881129  0.17291335    -0.84800
C81         C  0.43096127  0.78434314  0.18214755     1.02800
O82         O  0.40860903  0.81013074  0.16425614    -0.77600
O83         O  0.34104739  0.83984880  0.12086312    -0.77800
C84         C  0.31654057  0.83779170  0.15605437     1.02800
Cr85       Cr  0.30360339  0.76022359  0.12475531     1.93700
Cr86       Cr  0.37989315  0.71923603  0.14911723     1.93200
Cr87       Cr  0.38068442  0.80051450  0.10007661     1.39100
O88         O  0.35500966  0.76000613  0.12449581    -1.22900
O89         O  0.30296134  0.21023508  0.35638403    -0.85100
O90         O  0.24318027  0.20649516  0.29058029    -0.82200
C91         C  0.21850057  0.18970464  0.26411474     0.98300
O92         O  0.20020084  0.16011069  0.28010786    -0.82200
O93         O  0.24979693  0.09782158  0.29538301    -0.84800
C94         C  0.27358057  0.07492760  0.31558757     1.02900
O95         O  0.28389691  0.08009388  0.36001659    -0.77600
O96         O  0.32182529  0.14919205  0.34941645    -0.77800
C97         C  0.32730300  0.18486980  0.34145464     1.02800
O98         O  0.24466579  0.20825561  0.43633094    -0.85100
O99         O  0.18591926  0.20800232  0.36944298    -0.82200
C100        C  0.16192860  0.18204652  0.38338401     0.98400
O101        O  0.16939722  0.14647108  0.37860276    -0.82200
O102        O  0.21209779  0.08167727  0.39112351    -0.84800
C103        C  0.22445250  0.08236309  0.43566913     1.02800
O104        O  0.24935445  0.10710520  0.44898896    -0.77600
O105        O  0.29682397  0.17324729  0.44652371    -0.77800
C106        C  0.27372393  0.19921358  0.46178795     1.02800
Cr107      Cr  0.24442548  0.20426793  0.36357156     1.93700
Cr108      Cr  0.21063193  0.12376736  0.33806028     1.93200
Cr109      Cr  0.28501163  0.12949317  0.39889290     1.39100
O110        O  0.24638497  0.15272957  0.36667968    -1.22900
O111        O  0.20005035  0.31449060  0.85577188    -0.85100
O112        O  0.25906980  0.32071807  0.78791091    -0.82200
C113        C  0.28717450  0.33387664  0.76308633     0.98300
O114        O  0.30998980  0.35840228  0.78200738    -0.82200
O115        O  0.26073710  0.42334515  0.78605836    -0.84800
C116        C  0.23458872  0.44613882  0.80172769     1.02900
O117        O  0.22133655  0.44287386  0.84594347    -0.77600
O118        O  0.18133224  0.37551759  0.84990614    -0.77800
C119        C  0.17509570  0.33994299  0.84324195     1.02800
O120        O  0.25760045  0.31437438  0.93361308    -0.85100
O121        O  0.31755259  0.31576917  0.86701494    -0.82200
C122        C  0.34073736  0.34068064  0.88535571     0.98400
O123        O  0.33377367  0.37656604  0.88160877    -0.82200
O124        O  0.29261754  0.44505539  0.87871623    -0.84800
C125        C  0.27983205  0.44786487  0.92276737     1.02800
O126        O  0.25735378  0.42229721  0.94037968    -0.77600
O127        O  0.21083982  0.35638025  0.94782043    -0.77800
C128        C  0.23105211  0.32724372  0.96122424     1.02800
Cr129      Cr  0.25862528  0.32026007  0.86105905     1.93700
Cr130      Cr  0.29652886  0.39851954  0.83421486     1.93200
Cr131      Cr  0.22062394  0.39719729  0.89405700     1.39100
O132        O  0.25836450  0.37184093  0.86321101    -1.22900
O133        O  0.80630400  0.25543935  0.55936890    -0.85100
O134        O  0.80945631  0.19428939  0.62403936    -0.82200
C135        C  0.83561947  0.17204035  0.60621953     0.98300
O136        O  0.87068989  0.18175148  0.60790103    -0.82200
O137        O  0.93420228  0.22725560  0.60176487    -0.84800
C138        C  0.93377687  0.24275834  0.55875224     1.02900
O139        O  0.90875471  0.26796779  0.54727706    -0.77600
O140        O  0.83950328  0.30922315  0.54954873    -0.77800
C141        C  0.81526761  0.28456430  0.53329503     1.02800
O142        O  0.80124322  0.31196715  0.64045119    -0.85100
O143        O  0.81064023  0.25058453  0.70519866    -0.82200
C144        C  0.82780727  0.22435431  0.72939669     0.98400
O145        O  0.85554705  0.20532869  0.70984770    -0.82200
O146        O  0.91718148  0.25624844  0.69959064    -0.84800
C147        C  0.93845069  0.28336370  0.68343288     1.02800
O148        O  0.93188677  0.29901257  0.64133990    -0.77600
O149        O  0.86087964  0.33322785  0.64967588    -0.77800
C150        C  0.82501923  0.33719551  0.65672247     1.02800
Cr151      Cr  0.81074757  0.25349370  0.63193735     1.93700
Cr152      Cr  0.89190890  0.22051483  0.65307229     1.93200
Cr153      Cr  0.88334976  0.29926410  0.59913251     1.39100
O154        O  0.86200231  0.25771156  0.62818381    -1.22900
O155        O  0.70290970  0.25777463  0.06159816    -0.85100
O156        O  0.69970642  0.31777218  0.12732658    -0.82200
C157        C  0.67552282  0.34107055  0.10724712     0.98300
O158        O  0.63974994  0.33424487  0.10882745    -0.82200
O159        O  0.57142108  0.29509339  0.10734833    -0.84800
C160        C  0.56958937  0.28169925  0.06358839     1.02900
O161        O  0.59420774  0.25715661  0.04872047    -0.77600
O162        O  0.66123470  0.21128335  0.04532750    -0.77800
C163        C  0.69082695  0.23157100  0.03324198     1.02800
O164        O  0.69963921  0.20007513  0.14076670    -0.85100
O165        O  0.69123142  0.25871978  0.20683100    -0.82200
C166        C  0.67816033  0.28705881  0.23081110     0.98400
O167        O  0.65461155  0.31044225  0.21027756    -0.82200
O168        O  0.58975448  0.26230733  0.20233544    -0.84800
C169        C  0.56725804  0.23640819  0.18625076     1.02800
O170        O  0.57168487  0.22242957  0.14283454    -0.77600
O171        O  0.63854481  0.18189588  0.14310663    -0.77800
C172        C  0.67361412  0.17537900  0.15232318     1.02800
Cr173      Cr  0.69445934  0.25870308  0.13381669     1.93700
Cr174      Cr  0.61617378  0.29760247  0.15529252     1.93200
Cr175      Cr  0.61856587  0.22111784  0.09705782     1.39100
O176        O  0.64314669  0.25900180  0.12833447    -1.22900
C177        C  0.77271777  0.20131474  0.83870191     0.20600
C178        C  0.73936284  0.18864274  0.86506225    -0.39300
C179        C  0.73404053  0.20429941  0.91299031     0.19600
C180        C  0.76011381  0.23053950  0.93274952     0.22200
C181        C  0.79344489  0.24301520  0.90664818    -0.39800
C182        C  0.79872683  0.22742635  0.85893546     0.21000
N183        N  0.78207434  0.19416182  0.79081320    -0.33100
C184        C  0.81422784  0.21575999  0.78049774    -0.10600
C185        C  0.82547024  0.23687304  0.82216251    -0.29400
N186        N  0.74774473  0.24292023  0.97741340    -0.46000
C187        C  0.71344857  0.22465589  0.98683072    -0.05300
C188        C  0.70395281  0.19998591  0.94745997    -0.22700
H189        H  0.71838894  0.16912947  0.84873307     0.19100
H190        H  0.81308293  0.26447511  0.92171102     0.17900
H191        H  0.84802102  0.25878342  0.82394665     0.14200
H192        H  0.67824429  0.18209569  0.94399945     0.14100
H193        H  0.76592967  0.17788674  0.76555260     0.32200
H194        H  0.76172153  0.26312984  0.00001419     0.35000
C195        C  0.75715234  0.27262334  0.42487923     0.20600
C196        C  0.73191032  0.25207913  0.39408647    -0.39300
C197        C  0.71691251  0.27285833  0.35365865     0.19600
C198        C  0.72618303  0.31141038  0.34412995     0.22200
C199        C  0.75187237  0.33214841  0.37519315    -0.39800
C200        C  0.76704471  0.31113766  0.41619801     0.21000
N201        N  0.77436876  0.25892860  0.46593826    -0.33100
C202        C  0.79549710  0.28861316  0.48468933    -0.10600
C203        C  0.79206450  0.32187490  0.45435599    -0.29400
N204        N  0.71014712  0.32320095  0.30069334    -0.46000
C205        C  0.69112964  0.29160095  0.28267961    -0.05300
C206        C  0.69463573  0.25993449  0.31496812    -0.22700
H207        H  0.72489999  0.22174265  0.40075775     0.19100
H208        H  0.75981038  0.36212275  0.36766442     0.17900
H209        H  0.80486275  0.35022461  0.46032083     0.14200
H210        H  0.68476897  0.23042132  0.30888089     0.14100
H211        H  0.77113124  0.23096827  0.48104346     0.32200
H212        H  0.71454014  0.34985636  0.28252027     0.35000
C213        C  0.42596584  0.33437703  0.96004382     0.20600
C214        C  0.45318213  0.34786975  0.99448390    -0.39300
C215        C  0.48446634  0.32291725  0.00413250     0.19600
C216        C  0.48863554  0.28733749  0.98081732     0.22200
C217        C  0.46091282  0.27348439  0.94683356    -0.39800
C218        C  0.42922731  0.29840056  0.93748630     0.21000
N219        N  0.39413322  0.35313286  0.94431099    -0.33100
C220        C  0.37643259  0.32907952  0.91174301    -0.10600
C221        C  0.39727815  0.29433803  0.90665197    -0.29400
N222        N  0.52079382  0.26897975  0.99709415    -0.46000
C223        C  0.53670575  0.29280645  0.03157067    -0.05300
C224        C  0.51480497  0.32669525  0.03696969    -0.22700
H225        H  0.45009164  0.37575308  0.01264498     0.19100
H226        H  0.46373528  0.24538344  0.92917779     0.17900
H227        H  0.39052539  0.26997988  0.88288190     0.14200
H228        H  0.51981124  0.35037743  0.06252425     0.14100
H229        H  0.38493173  0.38083229  0.95515713     0.32200
H230        H  0.53032484  0.24121969  0.98713986     0.35000
C231        C  0.08562393  0.33605912  0.77726749     0.20600
C232        C  0.05631228  0.35045082  0.74606315    -0.39300
C233        C  0.02545300  0.32494460  0.73710363     0.19600
C234        C  0.02368696  0.28810976  0.75829152     0.22200
C235        C  0.05338294  0.27346063  0.78898786    -0.39800
C236        C  0.08461876  0.29884504  0.79741914     0.21000
N237        N  0.11785911  0.35475027  0.79126147    -0.33100
C238        C  0.13802744  0.32929400  0.82000183    -0.10600
C239        C  0.11833965  0.29389159  0.82467776    -0.29400
N240        N  0.99149667  0.26947213  0.74349248    -0.46000
C241        C  0.97302711  0.29433855  0.71202560    -0.05300
C242        C  0.99336417  0.32925457  0.70701277    -0.22700
H243        H  0.05764894  0.37929776  0.72959777     0.19100
H244        H  0.05238044  0.24436860  0.80474607     0.17900
H245        H  0.12713636  0.26839370  0.84570154     0.14200
H246        H  0.98610473  0.35402971  0.68370161     0.14100
H247        H  0.12586679  0.38316154  0.78148089     0.32200
H248        H  0.98339700  0.24097215  0.75259010     0.35000
C249        C  0.41626231  0.18782645  0.27394109     0.20600
C250        C  0.44662578  0.17224224  0.24534865    -0.39300
C251        C  0.47910989  0.19626859  0.23909040     0.19600
C252        C  0.48136974  0.23280487  0.26035063     0.22200
C253        C  0.45067266  0.24862988  0.28845604    -0.39800
C254        C  0.41788272  0.22473796  0.29423189     0.21000
N255        N  0.38305165  0.17008588  0.28676689    -0.33100
C256        C  0.36321665  0.19574493  0.31538875    -0.10600
C257        C  0.38365713  0.23051362  0.32043122    -0.29400
N258        N  0.51472788  0.25041172  0.24713811    -0.46000
C259        C  0.53324292  0.22532385  0.21624239    -0.05300
C260        C  0.51210494  0.19108651  0.21061671    -0.22700
H261        H  0.44493178  0.14361282  0.22888919     0.19100
H262        H  0.45215351  0.27744653  0.30439414     0.17900
H263        H  0.37559138  0.25557992  0.34241427     0.14200
H264        H  0.51895983  0.16667556  0.18683042     0.14100
H265        H  0.37482249  0.14171894  0.27774328     0.32200
H266        H  0.52310481  0.27879785  0.25575754     0.35000
C267        C  0.07372163  0.22288150  0.43115704     0.20600
C268        C  0.04477314  0.25088490  0.44037854    -0.39300
C269        C  0.01397795  0.23856416  0.47141356     0.19600
C270        C  0.01263973  0.20147024  0.49206539     0.22200
C271        C  0.04111853  0.17353579  0.48239288    -0.39800
C272        C  0.07137902  0.18562614  0.45107980     0.21000
N273        N  0.10666647  0.22716929  0.40420844    -0.33100
C274        C  0.12470244  0.19207802  0.40683871    -0.10600
C275        C  0.10353820  0.16562035  0.43562633    -0.29400
N276        N  0.98266172  0.19782939  0.52379946    -0.46000
C277        C  0.96446826  0.23270378  0.52325711    -0.05300
C278        C  0.98271029  0.25883336  0.49058897    -0.22700
H279        H  0.04649263  0.28020823  0.42545033     0.19100
H280        H  0.04022873  0.14470031  0.49894846     0.17900
H281        H  0.11110067  0.13579724  0.44474185     0.14200
H282        H  0.97576077  0.28925942  0.48463745     0.14100
H283        H  0.11615795  0.25211126  0.38523165     0.32200
H284        H  0.97593223  0.17366719  0.54604871     0.35000
C285        C  0.22310261  0.25817893  0.06098558     0.20600
C286        C  0.22936197  0.22222772  0.08489179    -0.39300
C287        C  0.21773821  0.22000891  0.13495361     0.19600
C288        C  0.20159277  0.25150922  0.15945473     0.22200
C289        C  0.19478665  0.28739068  0.13525581    -0.39800
C290        C  0.20597593  0.28944586  0.08485213     0.21000
N291        N  0.23371990  0.26808659  0.01447436    -0.33100
C292        C  0.22302405  0.30580107  0.00801279    -0.10600
C293        C  0.20523089  0.32020067  0.05104936    -0.29400
N294        N  0.19730473  0.24338364  0.20822756    -0.46000
C295        C  0.21036220  0.20640615  0.21474245    -0.05300
C296        C  0.22311662  0.19070812  0.16980911    -0.22700
H297        H  0.24348511  0.19814507  0.06628803     0.19100
H298        H  0.18285343  0.31223116  0.15468658     0.17900
H299        H  0.19453122  0.34941726  0.05730971     0.14200
H300        H  0.23753508  0.16303484  0.16424424     0.14100
H301        H  0.24778768  0.25025027  0.98865038     0.32200
H302        H  0.18819856  0.26256764  0.23598780     0.35000
C303        C  0.30858352  0.28341166  0.65085616     0.20600
C304        C  0.32535356  0.25409768  0.62101210    -0.39300
C305        C  0.30489204  0.24485255  0.57733375     0.19600
C306        C  0.27061885  0.26359357  0.56492197     0.22200
C307        C  0.25403516  0.29256166  0.59445420    -0.39800
C308        C  0.27419985  0.30162742  0.63769947     0.21000
N309        N  0.31989158  0.29525359  0.69629229    -0.33100
C310        C  0.29218264  0.32077688  0.71168061    -0.10600
C311        C  0.26340224  0.32542379  0.67614579    -0.29400
N312        N  0.25581145  0.24924316  0.52302824    -0.46000
C313        C  0.28048624  0.22095678  0.50793761    -0.05300
C314        C  0.31174518  0.21723062  0.54078189    -0.22700
H315        H  0.35164416  0.23893860  0.63166665     0.19100
H316        H  0.22664389  0.30624091  0.58514696     0.17900
H317        H  0.23662838  0.34179598  0.67966068     0.14200
H318        H  0.33590104  0.19710673  0.53837322     0.14100
H319        H  0.34317364  0.28449403  0.71703895     0.32200
H320        H  0.23013880  0.25817717  0.50576575     0.35000
C321        C  0.29143291  0.99667016  0.23299639     0.20600
C322        C  0.29058015  0.97660688  0.18782887    -0.39300
C323        C  0.29578964  0.93624908  0.19149039     0.19600
C324        C  0.30084595  0.91722961  0.23668693     0.22200
C325        C  0.30267585  0.93739870  0.28169007    -0.39800
C326        C  0.29802507  0.97780609  0.27796131     0.21000
N327        N  0.28399687  0.03460262  0.24015602    -0.33100
C328        C  0.28615654  0.03972966  0.28997907    -0.10600
C329        C  0.29555520  0.00522602  0.31469762    -0.29400
N330        N  0.30565230  0.87883951  0.23001087    -0.46000
C331        C  0.30469087  0.87374233  0.18015010    -0.05300
C332        C  0.29851049  0.90871843  0.15485549    -0.22700
H333        H  0.28589102  0.99126202  0.15254159     0.19100
H334        H  0.30699772  0.92269512  0.31702654     0.17900
H335        H  0.29709687  0.00027333  0.35450721     0.14200
H336        H  0.29794469  0.91352113  0.11497197     0.14100
H337        H  0.27610765  0.05522107  0.21324297     0.32200
H338        H  0.31188909  0.85789995  0.25721865     0.35000
C339        C  0.29503227  0.60504897  0.01107636     0.20600
C340        C  0.29367533  0.58692024  0.96460726    -0.39300
C341        C  0.29191585  0.54619590  0.96580532     0.19600
C342        C  0.29048053  0.52499353  0.00986646     0.22200
C343        C  0.29250699  0.54310432  0.05646636    -0.39800
C344        C  0.29530512  0.58390350  0.05523426     0.21000
N345        N  0.29934908  0.64325661  0.01971501    -0.33100
C346        C  0.30358648  0.64634738  0.06956916    -0.10600
C347        C  0.30105487  0.61005257  0.09309139    -0.29400
N348        N  0.28708259  0.48668076  0.00061503    -0.46000
C349        C  0.28719973  0.48372699  0.95031349    -0.05300
C350        C  0.29043365  0.52011588  0.92741698    -0.22700
H351        H  0.29457199  0.60329746  0.93001187     0.19100
H352        H  0.29257868  0.52665624  0.09101593     0.17900
H353        H  0.30475927  0.60355656  0.13228697     0.14200
H354        H  0.28986564  0.52668476  0.88792464     0.14100
H355        H  0.30198938  0.66550821  0.99314366     0.32200
H356        H  0.28436389  0.46409488  0.02668768     0.35000
C357        C  0.16946191  0.94363906  0.54868548     0.20600
C358        C  0.15470851  0.97253901  0.51685908    -0.39300
C359        C  0.18057980  0.00249000  0.50414232     0.19600
C360        C  0.21800605  0.00397754  0.52269527     0.22200
C361        C  0.23291172  0.97473778  0.55410988    -0.39800
C362        C  0.20725527  0.94428386  0.56603618     0.21000
N363        N  0.15124280  0.91121676  0.56396163    -0.33100
C364        C  0.17767555  0.89057466  0.59049078    -0.10600
C365        C  0.21307184  0.91021968  0.59278621    -0.29400
N366        N  0.23741260  0.03435086  0.50295097    -0.46000
C367        C  0.21250013  0.05167511  0.47076734    -0.05300
C368        C  0.17671417  0.03271810  0.47049704    -0.22700
H369        H  0.12565052  0.97107579  0.50176884     0.19100
H370        H  0.26265574  0.97505251  0.56696812     0.17900
H371        H  0.23946281  0.90068919  0.61089587     0.14200
H372        H  0.15193556  0.03911422  0.44717927     0.14100
H373        H  0.12281196  0.90301619  0.55549047     0.32200
H374        H  0.26661715  0.04132555  0.50845471     0.35000
C375        C  0.25780902  0.81468297  0.92439680     0.20600
C376        C  0.22197455  0.82157007  0.90108976    -0.39300
C377        C  0.22071340  0.81344040  0.85003588     0.19600
C378        C  0.25272491  0.79911287  0.82458552     0.22200
C379        C  0.28866738  0.79265927  0.84772227    -0.39800
C380        C  0.29002490  0.80115016  0.89864184     0.21000
N381        N  0.26542125  0.81694648  0.97319474    -0.33100
C382        C  0.30269967  0.80486460  0.97873111    -0.10600
C383        C  0.31927178  0.79518273  0.93291474    -0.29400
N384        N  0.24337068  0.79078605  0.77751986    -0.46000
C385        C  0.20525640  0.80004761  0.77261919    -0.05300
C386        C  0.19006003  0.81473698  0.81693800    -0.22700
H387        H  0.19662058  0.83133358  0.92157150     0.19100
H388        H  0.31335912  0.78066817  0.82787323     0.17900
H389        H  0.34774077  0.78279061  0.92612910     0.14200
H390        H  0.16035146  0.82334300  0.82453780     0.14100
H391        H  0.24582199  0.82453247  0.00139315     0.32200
H392        H  0.26167730  0.77875164  0.75049310     0.35000
C393        C  0.28785327  0.73166786  0.34873707     0.20600
C394        C  0.28752596  0.74687075  0.39707929    -0.39300
C395        C  0.25321416  0.74082414  0.42466643     0.19600
C396        C  0.22167719  0.72069690  0.40608253     0.22200
C397        C  0.22179655  0.70596181  0.35742318    -0.39800
C398        C  0.25597248  0.71244190  0.32954759     0.21000
N399        N  0.31589461  0.73592223  0.31386825    -0.33100
C400        C  0.30142199  0.71998642  0.27186774    -0.10600
C401        C  0.26423303  0.70492210  0.28030918    -0.29400
N402        N  0.19253446  0.71909297  0.43993943    -0.46000
C403        C  0.20557273  0.73892820  0.47997178    -0.05300
C404        C  0.24318206  0.75291813  0.47166836    -0.22700
H405        H  0.31185997  0.76300805  0.41176532     0.19100
H406        H  0.19681779  0.69132881  0.34198255     0.17900
H407        H  0.24496054  0.69217211  0.25322890     0.14200
H408        H  0.26092373  0.76958434  0.49693189     0.14100
H409        H  0.34200975  0.75112354  0.31742804     0.32200
H410        H  0.16538799  0.70594791  0.43581421     0.35000
C411        C  0.18280153  0.59591453  0.71198245     0.20600
C412        C  0.16978620  0.56753865  0.74595370    -0.39300
C413        C  0.19238754  0.53372535  0.74897285     0.19600
C414        C  0.22526498  0.52826263  0.71987131     0.22200
C415        C  0.23844370  0.55692453  0.68585710    -0.39800
C416        C  0.21601807  0.59120096  0.68329390     0.21000
N417        N  0.16594704  0.63024454  0.70220100    -0.33100
C418        C  0.18839792  0.64803155  0.66719541    -0.10600
C419        C  0.22029930  0.62477291  0.65457224    -0.29400
N420        N  0.24295181  0.49459061  0.73235407    -0.46000
C421        C  0.22160309  0.47908052  0.77035514    -0.05300
C422        C  0.18959993  0.50251247  0.78128880    -0.22700
H423        H  0.14426949  0.57183701  0.76908714     0.19100
H424        H  0.26457741  0.55311160  0.66376348     0.17900
H425        H  0.24247204  0.63079448  0.62679490     0.14200
H426        H  0.16857190  0.49853367  0.81106855     0.14100
H427        H  0.14014919  0.64077691  0.71787784     0.32200
H428        H  0.26936715  0.48422902  0.71836523     0.35000
C429        C  0.56970410  0.68353352  0.94999454     0.20600
C430        C  0.53559696  0.66701534  0.97024217    -0.39300
C431        C  0.50933935  0.69331558  0.99191583     0.19600
C432        C  0.51671345  0.73291522  0.99262200     0.22200
C433        C  0.55076456  0.74935810  0.97254877    -0.39800
C434        C  0.57707965  0.72311910  0.95131037     0.21000
N435        N  0.60004490  0.66463156  0.93001140    -0.39500
C436        C  0.62713037  0.69219747  0.91895709    -0.10600
C437        C  0.61375708  0.72921516  0.93136623    -0.29400
N438        N  0.48844260  0.75167185  0.01700391    -0.46000
C439        C  0.46280164  0.72411888  0.03265675    -0.05300
C440        C  0.47470737  0.68710707  0.01756588    -0.22700
H441        H  0.53043228  0.63592086  0.97027885     0.19100
H442        H  0.55674325  0.78025230  0.97453045     0.17900
H443        H  0.62918420  0.75657014  0.92786126     0.14200
H444        H  0.46077505  0.65950445  0.02566558     0.14100
H445        H  0.60261628  0.63453731  0.92553281     0.32200
H446        H  0.48744518  0.78152720  0.02412429     0.35000
C447        C  0.98526904  0.73205604  0.77034754     0.20600
C448        C  0.95936537  0.74386314  0.80818787    -0.39300
C449        C  0.92422609  0.72304392  0.81134388     0.19600
C450        C  0.91607867  0.69267164  0.77943693     0.22200
C451        C  0.94155140  0.68137445  0.74129073    -0.39800
C452        C  0.97634164  0.70226447  0.73794832     0.21000
N453        N  0.02010816  0.74751526  0.75869715    -0.33100
C454        C  0.03307268  0.72767845  0.71827655    -0.10600
C455        C  0.00651684  0.69924456  0.70429493    -0.29400
N456        N  0.88200477  0.67615187  0.79125710    -0.46000
C457        C  0.86780784  0.69618909  0.83060887    -0.05300
C458        C  0.89312094  0.72601390  0.84421540    -0.22700
H459        H  0.96611022  0.76738356  0.83330336     0.19100
H460        H  0.93479071  0.65788355  0.71612534     0.17900
H461        H  0.00838869  0.67995025  0.67266837     0.14200
H462        H  0.89006362  0.74581536  0.87516828     0.14100
H463        H  0.03340692  0.77122854  0.77572917     0.32200
H464        H  0.86934250  0.65212878  0.77403844     0.35000
C465        C  0.78598453  0.42712896  0.70235367     0.20600
C466        C  0.76336688  0.46140907  0.70240124    -0.39300
C467        C  0.77465595  0.49030383  0.73649790     0.19600
C468        C  0.80581361  0.48512669  0.76822395     0.22200
C469        C  0.82849174  0.45125139  0.76784912    -0.39800
C470        C  0.81747418  0.42273984  0.73371290     0.21000
N471        N  0.78252557  0.39581594  0.67246028    -0.33100
C472        C  0.81245722  0.37185242  0.68473141    -0.10600
C473        C  0.83468712  0.38776446  0.72271816    -0.29400
N474        N  0.80976873  0.51575208  0.79859178    -0.46000
C475        C  0.78111996  0.54105462  0.78631425    -0.05300
C476        C  0.75867190  0.52632516  0.74740785    -0.22700
H477        H  0.73889933  0.46532937  0.67774058     0.19100
H478        H  0.85309524  0.44741017  0.79232316     0.17900
H479        H  0.86102405  0.37593887  0.73871809     0.14200
H480        H  0.73296294  0.53926415  0.73117411     0.14100
H481        H  0.76254635  0.39200627  0.64379251     0.32200
H482        H  0.83003566  0.51870707  0.82712005     0.35000
C483        C  0.72105088  0.49516996  0.02152826     0.20600
C484        C  0.73458766  0.46840994  0.05741401    -0.39300
C485        C  0.71333269  0.43361008  0.06176284     0.19600
C486        C  0.68091009  0.42668576  0.03289700     0.22200
C487        C  0.66755038  0.45318805  0.99706100    -0.39800
C488        C  0.68898783  0.48753366  0.99231296     0.21000
N489        N  0.73735575  0.52919301  0.00792595    -0.33100
C490        C  0.71587290  0.54276289  0.96928649    -0.10600
C491        C  0.68528515  0.51770839  0.95872494    -0.29400
N492        N  0.66499757  0.39234988  0.04467371    -0.46000
C493        C  0.68727916  0.37684336  0.08116078    -0.05300
C494        C  0.71808833  0.40152364  0.09281047    -0.22700
H495        H  0.76001004  0.47405776  0.07974667     0.19100
H496        H  0.64255595  0.44721673  0.97406753     0.17900
H497        H  0.66441798  0.52023386  0.92887659     0.14200
H498        H  0.73974213  0.39742070  0.12142168     0.14100
H499        H  0.76280940  0.54128035  0.02207776     0.32200
H500        H  0.63983997  0.38042659  0.02941018     0.35000
C501        C  0.57291551  0.83151527  0.29460144     0.20600
C502        C  0.53609612  0.84690927  0.28269106    -0.39300
C503        C  0.51186647  0.82254827  0.25469767     0.19600
C504        C  0.52355076  0.78558926  0.24084856     0.22200
C505        C  0.56033619  0.77046379  0.25222452    -0.39800
C506        C  0.58469424  0.79496115  0.27924467     0.21000
N507        N  0.60131638  0.84869254  0.32054120    -0.33100
C508        C  0.63150075  0.82314503  0.32106769    -0.10600
C509        C  0.62229734  0.78929749  0.29546539    -0.29400
N510        N  0.49576917  0.76802224  0.21469992    -0.46000
C511        C  0.46609965  0.79383837  0.21075521    -0.05300
C512        C  0.47496654  0.82848767  0.23524930    -0.22700
H513        H  0.52717596  0.87577788  0.29398828     0.19100
H514        H  0.56942938  0.74176713  0.24044295     0.17900
H515        H  0.64038129  0.76384273  0.29012606     0.14200
H516        H  0.45711233  0.85434065  0.23820734     0.14100
H517        H  0.60037238  0.87629388  0.33662744     0.32200
H518        H  0.49735825  0.74022089  0.19924715     0.35000
C519        C  0.91926317  0.79912724  0.45263944     0.20600
C520        C  0.95922313  0.79286774  0.44522012    -0.39300
C521        C  0.98251799  0.79689587  0.48750440     0.19600
C522        C  0.96713257  0.80705125  0.53336446     0.22200
C523        C  0.92713307  0.81289267  0.54090386    -0.39800
C524        C  0.90374163  0.80820311  0.49881989     0.21000
N525        N  0.89148627  0.79960182  0.41782946    -0.33100
C526        C  0.85796851  0.80861805  0.44193510    -0.10600
C527        C  0.86430033  0.81384568  0.49268328    -0.29400
N528        N  0.99509860  0.80817659  0.56787392    -0.46000
C529        C  0.02844471  0.79786517  0.54421046    -0.05300
C530        C  0.02185204  0.79077538  0.49386362    -0.22700
H531        H  0.97126397  0.78546637  0.40916176     0.19100
H532        H  0.91514314  0.82059794  0.57687975     0.17900
H533        H  0.84360580  0.82382122  0.52033795     0.14200
H534        H  0.04259026  0.78072367  0.46631051     0.14100
H535        H  0.89539055  0.79611049  0.37948782     0.32200
H536        H  0.99131533  0.81335186  0.60584887     0.35000
C537        C  0.79962822  0.72450772  0.10202880     0.20600
C538        C  0.80433288  0.72165008  0.15398148    -0.39300
C539        C  0.79938808  0.75648904  0.18076586     0.19600
C540        C  0.79067337  0.79157893  0.15767801     0.22200
C541        C  0.78560929  0.79435247  0.10595130    -0.39800
C542        C  0.79029543  0.75958210  0.07929716     0.21000
N543        N  0.79979326  0.69528351  0.06851981    -0.33100
C544        C  0.78970677  0.71198304  0.02446055    -0.10600
C545        C  0.78388477  0.75196111  0.02985034    -0.29400
N546        N  0.78576373  0.82005449  0.19148706    -0.46000
C547        C  0.79099411  0.80296253  0.23663992    -0.05300
C548        C  0.79954944  0.76334045  0.23135237    -0.22700
H549        H  0.81024630  0.69414627  0.17238599     0.19100
H550        H  0.77740049  0.82139226  0.08788932     0.17900
H551        H  0.77417361  0.77240455  0.00167088     0.14200
H552        H  0.80403260  0.74210841  0.26076221     0.14100
H553        H  0.80390545  0.66565124  0.07576596     0.32200
H554        H  0.77772326  0.84890104  0.18441388     0.35000
C555        C  0.70862399  0.80298960  0.60518784     0.20600
C556        C  0.72259523  0.80276750  0.65413999    -0.39300
C557        C  0.71521399  0.76879272  0.68204669     0.19600
C558        C  0.69499855  0.73738672  0.66319803     0.22200
C559        C  0.68120725  0.73749316  0.61401066    -0.39800
C560        C  0.68904169  0.77136861  0.58579627     0.21000
N561        N  0.71515085  0.83028665  0.56979885    -0.33100
C562        C  0.70031413  0.81567094  0.52723226    -0.10600
C563        C  0.68356361  0.77911208  0.53588132    -0.29400
N564        N  0.69363266  0.70786223  0.69671888    -0.46000
C565        C  0.71378818  0.72049650  0.73673988    -0.05300
C566        C  0.72739057  0.75838724  0.72890593    -0.22700
H567        H  0.73933520  0.82670747  0.66883940     0.19100
H568        H  0.66680245  0.71248087  0.59823369     0.17900
H569        H  0.67137704  0.75967311  0.50854767     0.14200
H570        H  0.74477290  0.77570771  0.75385820     0.14100
H571        H  0.73134030  0.85582721  0.57350410     0.32200
H572        H  0.68109145  0.68044815  0.69198460     0.35000
C573        C  0.82004873  0.01857175  0.50326189     0.20600
C574        C  0.84846411  0.04594634  0.51646575    -0.39300
C575        C  0.83510139  0.07830538  0.54360705     0.19600
C576        C  0.79642803  0.08331336  0.55665172     0.22200
C577        C  0.76805647  0.05593572  0.54356273    -0.39800
C578        C  0.78142115  0.02358489  0.51651621     0.21000
N579        N  0.82469990  0.98644508  0.47498348    -0.33100
C580        C  0.78860010  0.97110543  0.47002113    -0.10600
C581        C  0.76110396  0.99344004  0.49573838    -0.29400
N582        N  0.79107979  0.11722456  0.58096844    -0.46000
C583        C  0.82673135  0.13390176  0.58346544    -0.05300
C584        C  0.85478973  0.11036576  0.56064144    -0.22700
H585        H  0.87864125  0.04272312  0.50559673     0.19100
H586        H  0.73764637  0.05990172  0.55281541     0.17900
H587        H  0.72993269  0.98918677  0.49703948     0.14200
H588        H  0.88554546  0.11628439  0.55639268     0.14100
H589        H  0.85037337  0.97669858  0.45824201     0.32200
H590        H  0.76488651  0.12842688  0.59454601     0.35000
C591        C  0.71409276  0.08852179  0.20537813     0.20600
C592        C  0.74283716  0.06174120  0.21959402    -0.39300
C593        C  0.72922902  0.02709551  0.24170337     0.19600
C594        C  0.69006028  0.01971471  0.24944104     0.22200
C595        C  0.66137555  0.04642641  0.23519492    -0.39800
C596        C  0.67495104  0.08087585  0.21281869     0.21000
N597        N  0.71923428  0.12359999  0.18347459    -0.33100
C598        C  0.68297406  0.13800016  0.17656013    -0.10600
C599        C  0.65474551  0.11226293  0.19465280    -0.29400
N600        N  0.68482159  0.98597807  0.27434855    -0.46000
C601        C  0.72096750  0.97195384  0.28287798    -0.05300
C602        C  0.74934837  0.99652581  0.26246926    -0.22700
H603        H  0.77351381  0.06763288  0.21445495     0.19100
H604        H  0.63074672  0.04100908  0.24159890     0.17900
H605        H  0.62349092  0.11596559  0.19423129     0.14200
H606        H  0.78059632  0.99366995  0.26534501     0.14100
H607        H  0.74558680  0.13662995  0.17329543     0.32200
H608        H  0.65847544  0.97435177  0.28710701     0.35000
loop_ 
_geom_bond_atom_site_label_1 
_geom_bond_atom_site_label_2 
_geom_bond_distance 
_geom_bond_site_symmetry_2 
_ccdc_geom_bond_type 
O1          Cr19   1.996       .  S
O1            C9   1.265       .  A
O2          Cr19   1.995       .  S
O2            C3   1.258       .  A
C3            O4   1.262       .  A
C3          C562   1.476       .  S
O4          Cr20   2.005       .  S
O5          Cr20   1.976       .  S
O5            C6   1.259       .  A
C6            O7   1.269       .  A
C6          C580   1.483       .  S
O7          Cr21   2.018       .  S
O8          Cr21   2.000       .  S
O8            C9   1.264       .  A
C9          C526   1.466       .  S
O10         Cr19   2.000       .  S
O10          C18   1.260       .  A
O11         Cr19   1.996       .  S
O11          C12   1.267       .  A
C12          O13   1.263       .  A
C12         C508   1.473       .  S
O13         Cr20   1.994       .  S
O14         Cr20   1.993       .  S
O14          C15   1.264       .  A
C15          O16   1.261       .  A
C15         C601   1.469       .  S
O16         Cr21   1.982       .  S
O17         Cr21   2.009       .  S
O17          C18   1.264       .  A
C18         C547   1.482       .  S
Cr19         O22   1.777       .  S
Cr20         O22   1.770       .  S
Cr21         O22   1.777       .  S
O23         Cr41   2.033       .  S
O23          C31   1.271       .  A
O24         Cr41   1.957       .  S
O24          C25   1.253       .  A
C25          O26   1.269       .  A
C25         C544   1.479   1_556  S
O26         Cr42   2.042       .  S
O27         Cr42   1.964       .  S
O27          C28   1.260       .  A
C28          O29   1.272       .  A
C28         C490   1.467       .  S
O29         Cr43   2.022       .  S
O30         Cr43   1.947       .  S
O30          C31   1.252       .  A
C31         C436   1.472       .  S
O32         Cr41   1.953       .  S
O32          C40   1.254       .  A
O33         Cr41   2.038       .  S
O33          C34   1.272       .  A
C34          O35   1.256       .  A
C34         C457   1.468       .  S
O35         Cr42   1.954       .  S
O36         Cr42   2.023       .  S
O36          C37   1.268       .  A
C37          O38   1.259       .  A
C37         C475   1.478       .  S
O38         Cr43   1.977       .  S
O39         Cr43   2.039       .  S
O39          C40   1.271       .  A
C40         C565   1.479       .  S
Cr41         O44   1.774       .  S
Cr42         O44   1.773       .  S
Cr43         O44   1.776       .  S
O45         Cr63   1.949       .  S
O45          C53   1.252       .  A
O46         Cr63   2.041       .  S
O46          C47   1.273       .  A
C47          O48   1.255       .  A
C47         C418   1.472       .  S
O48         Cr64   1.953       .  S
O49         Cr64   2.024       .  S
O49          C50   1.270       .  A
C50          O51   1.259       .  A
C50         C454   1.471       .  S
O51         Cr65   1.969       .  S
O52         Cr65   2.030       .  S
O52          C53   1.268       .  A
C53         C385   1.469       .  S
O54         Cr63   2.033       .  S
O54          C62   1.271       .  A
O55         Cr63   1.952       .  S
O55          C56   1.252       .  A
C56          O57   1.269       .  A
C56         C403   1.475       .  S
O57         Cr64   2.037       .  S
O58         Cr64   1.978       .  S
O58          C59   1.261       .  A
C59          O60   1.268       .  A
C59         C529   1.469       .  S
O60         Cr65   2.015       .  S
O61         Cr65   1.949       .  S
O61          C62   1.254       .  A
C62         C364   1.467       .  S
Cr63         O66   1.772       .  S
Cr64         O66   1.768       .  S
Cr65         O66   1.770       .  S
O67         Cr85   1.996       .  S
O67          C75   1.260       .  A
O68         Cr85   1.983       .  S
O68          C69   1.262       .  A
C69          O70   1.265       .  A
C69         C346   1.463       .  S
O70         Cr86   2.008       .  S
O71         Cr86   2.005       .  S
O71          C72   1.268       .  A
C72          O73   1.262       .  A
C72         C439   1.473       .  S
O73         Cr87   1.981       .  S
O74         Cr87   1.997       .  S
O74          C75   1.262       .  A
C75         C382   1.471   1_554  S
O76         Cr85   1.980       .  S
O76          C84   1.261       .  A
O77         Cr85   1.998       .  S
O77          C78   1.260       .  A
C78          O79   1.263       .  A
C78         C400   1.473       .  S
O79         Cr86   2.002       .  S
O80         Cr86   1.983       .  S
O80          C81   1.261       .  A
C81          O82   1.266       .  A
C81         C511   1.475       .  S
O82         Cr87   2.008       .  S
O83         Cr87   1.998       .  S
O83          C84   1.264       .  A
C84         C331   1.455       .  S
Cr85         O88   1.768       .  S
Cr86         O88   1.767       .  S
Cr87         O88   1.768       .  S
O89        Cr107   2.032       .  S
O89          C97   1.273       .  A
O90        Cr107   1.962       .  S
O90          C91   1.254       .  A
C91          O92   1.266       .  A
C91         C295   1.469       .  S
O92        Cr108   2.021       .  S
O93        Cr108   1.979       .  S
O93          C94   1.257       .  A
C94          O95   1.261       .  A
C94         C328   1.459       .  S
O95        Cr109   1.999       .  S
O96        Cr109   1.947       .  S
O96          C97   1.256       .  A
C97         C256   1.463       .  S
O98        Cr107   1.959       .  S
O98         C106   1.252       .  A
O99        Cr107   2.022       .  S
O99         C100   1.268       .  A
C100        O101   1.255       .  A
C100        C274   1.465       .  S
O101       Cr108   1.948       .  S
O102       Cr108   2.023       .  S
O102        C103   1.272       .  A
C103        O104   1.262       .  A
C103        C367   1.465       .  S
O104       Cr109   1.967       .  S
O105       Cr109   2.023       .  S
O105        C106   1.263       .  A
C106        C313   1.471       .  S
Cr107       O110   1.772       .  S
Cr108       O110   1.766       .  S
Cr109       O110   1.776       .  S
O111       Cr129   2.031       .  S
O111        C119   1.270       .  A
O112       Cr129   1.964       .  S
O112        C113   1.253       .  A
C113        O114   1.263       .  A
C113        C310   1.464       .  S
O114       Cr130   2.024       .  S
O115       Cr130   1.979       .  S
O115        C116   1.264       .  A
C116        O117   1.273       .  A
C116        C421   1.476       .  S
O117       Cr131   2.024       .  S
O118       Cr131   1.955       .  S
O118        C119   1.255       .  A
C119        C238   1.471       .  S
O120       Cr129   1.957       .  S
O120        C128   1.255       .  A
O121       Cr129   2.040       .  S
O121        C122   1.274       .  A
C122        O123   1.258       .  A
C122        C220   1.475       .  S
O123       Cr130   1.959       .  S
O124       Cr130   2.006       .  S
O124        C125   1.263       .  A
C125        O126   1.258       .  A
C125        C349   1.464       .  S
O126       Cr131   1.981       .  S
O127       Cr131   2.031       .  S
O127        C128   1.269       .  A
C128        C292   1.476   1_556  S
Cr129       O132   1.772       .  S
Cr130       O132   1.774       .  S
Cr131       O132   1.768       .  S
O133       Cr151   1.956       .  S
O133        C141   1.254       .  A
O134       Cr151   2.046       .  S
O134        C135   1.273       .  A
C135        O136   1.253       .  A
C135        C583   1.482       .  S
O136       Cr152   1.953       .  S
O137       Cr152   2.009       .  S
O137        C138   1.268       .  A
C138        O139   1.258       .  A
C138        C277   1.460       .  S
O139       Cr153   1.965       .  S
O140       Cr153   2.046       .  S
O140        C141   1.270       .  A
C141        C202   1.481       .  S
O142       Cr151   2.048       .  S
O142        C150   1.273       .  A
O143       Cr151   1.969       .  S
O143        C144   1.256       .  A
C144        O145   1.269       .  A
C144        C184   1.474       .  S
O145       Cr152   2.031       .  S
O146       Cr152   1.965       .  S
O146        C147   1.257       .  A
C147        O148   1.269       .  A
C147        C241   1.471       .  S
O148       Cr153   2.024       .  S
O149       Cr153   1.951       .  S
O149        C150   1.254       .  A
C150        C472   1.475       .  S
Cr151       O154   1.771       .  S
Cr152       O154   1.769       .  S
Cr153       O154   1.778       .  S
O155       Cr173   1.959       .  S
O155        C163   1.256       .  A
O156       Cr173   2.042       .  S
O156        C157   1.273       .  A
C157        O158   1.253       .  A
C157        C493   1.465       .  S
O158       Cr174   1.939       .  S
O159       Cr174   2.016       .  S
O159        C160   1.267       .  A
C160        O161   1.259       .  A
C160        C223   1.474       .  S
O161       Cr175   1.977       .  S
O162       Cr175   2.044       .  S
O162        C163   1.273       .  A
C163        C187   1.485   1_554  S
O164       Cr173   2.028       .  S
O164        C172   1.269       .  A
O165       Cr173   1.963       .  S
O165        C166   1.252       .  A
C166        O167   1.266       .  A
C166        C205   1.475       .  S
O167       Cr174   2.040       .  S
O168       Cr174   1.963       .  S
O168        C169   1.260       .  A
C169        O170   1.272       .  A
C169        C259   1.465       .  S
O170       Cr175   2.022       .  S
O171       Cr175   1.949       .  S
O171        C172   1.253       .  A
C172        C598   1.471       .  S
Cr173       O176   1.772       .  S
Cr174       O176   1.773       .  S
Cr175       O176   1.772       .  S
C177        C182   1.384       .  A
C177        C178   1.411       .  A
C177        N183   1.348       .  A
C178        C179   1.409       .  A
C178        H189   1.082       .  S
C179        C188   1.391       .  A
C179        C180   1.383       .  A
C180        C181   1.405       .  A
C180        N186   1.342       .  A
C181        C182   1.403       .  A
C181        H190   1.082       .  S
C182        C185   1.382       .  A
N183        C184   1.358       .  A
N183        H193   1.045       .  S
C184        C185   1.395       .  A
C185        H191   1.083       .  S
N186        C187   1.358       .  A
N186        H194   1.045   1_556  S
C187        C188   1.400       .  A
C188        H192   1.082       .  S
C195        C200   1.383       .  A
C195        C196   1.398       .  A
C195        N201   1.337       .  A
C196        C197   1.396       .  A
C196        H207   1.083       .  S
C197        C206   1.372       .  A
C197        C198   1.383       .  A
C198        C199   1.415       .  A
C198        N204   1.353       .  A
C199        C200   1.414       .  A
C199        H208   1.082       .  S
C200        C203   1.395       .  A
N201        C202   1.354       .  A
N201        H211   1.045       .  S
C202        C203   1.403       .  A
C203        H209   1.082       .  S
N204        C205   1.361       .  A
N204        H212   1.044       .  S
C205        C206   1.391       .  A
C206        H210   1.083       .  S
C213        C218   1.384       .  A
C213        C214   1.402       .  A
C213        N219   1.339       .  A
C214        C215   1.400   1_556  A
C214        H225   1.082   1_556  S
C215        C224   1.378       .  A
C215        C216   1.384   1_554  A
C216        C217   1.410       .  A
C216        N222   1.347       .  A
C217        C218   1.408       .  A
C217        H226   1.082       .  S
C218        C221   1.388       .  A
N219        C220   1.355       .  A
N219        H229   1.045       .  S
C220        C221   1.398       .  A
C221        H227   1.082       .  S
N222        C223   1.358   1_556  A
N222        H230   1.044       .  S
C223        C224   1.394       .  A
C224        H228   1.082       .  S
C231        C236   1.384       .  A
C231        C232   1.403       .  A
C231        N237   1.339       .  A
C232        C233   1.400       .  A
C232        H243   1.082       .  S
C233        C242   1.380   1_455  A
C233        C234   1.384       .  A
C234        C235   1.407       .  A
C234        N240   1.343   1_455  A
C235        C236   1.405       .  A
C235        H244   1.082       .  S
C236        C239   1.386       .  A
N237        C238   1.355       .  A
N237        H247   1.045       .  S
C238        C239   1.396       .  A
C239        H245   1.082       .  S
N240        C241   1.357       .  A
N240        H248   1.044       .  S
C241        C242   1.394       .  A
C242        H246   1.082       .  S
C249        C254   1.385       .  A
C249        C250   1.400       .  A
C249        N255   1.337       .  A
C250        C251   1.398       .  A
C250        H261   1.083       .  S
C251        C260   1.376       .  A
C251        C252   1.385       .  A
C252        C253   1.405       .  A
C252        N258   1.342       .  A
C253        C254   1.402       .  A
C253        H262   1.082       .  S
C254        C257   1.382       .  A
N255        C256   1.354       .  A
N255        H265   1.045       .  S
C256        C257   1.394       .  A
C257        H263   1.082       .  S
N258        C259   1.356       .  A
N258        H266   1.045       .  S
C259        C260   1.392       .  A
C260        H264   1.082       .  S
C267        C272   1.385       .  A
C267        C268   1.406       .  A
C267        N273   1.348       .  A
C268        C269   1.407       .  A
C268        H279   1.082       .  S
C269        C278   1.380   1_455  A
C269        C270   1.386       .  A
C270        C271   1.395       .  A
C270        N276   1.339   1_455  A
C271        C272   1.395       .  A
C271        H280   1.083       .  S
C272        C275   1.366       .  A
N273        C274   1.356       .  A
N273        H283   1.045       .  S
C274        C275   1.391       .  A
C275        H281   1.083       .  S
N276        C277   1.351       .  A
N276        H284   1.044       .  S
C277        C278   1.396       .  A
C278        H282   1.082       .  S
C285        C290   1.384       .  A
C285        C286   1.404       .  A
C285        N291   1.340       .  A
C286        C287   1.401       .  A
C286        H297   1.082       .  S
C287        C296   1.382       .  A
C287        C288   1.384       .  A
C288        C289   1.409       .  A
C288        N294   1.344       .  A
C289        C290   1.406       .  A
C289        H298   1.082       .  S
C290        C293   1.388       .  A
N291        C292   1.356       .  A
N291        H301   1.045   1_554  S
C292        C293   1.397       .  A
C293        H299   1.082       .  S
N294        C295   1.357       .  A
N294        H302   1.045       .  S
C295        C296   1.393       .  A
C296        H300   1.082       .  S
C303        C308   1.384       .  A
C303        C304   1.412       .  A
C303        N309   1.349       .  A
C304        C305   1.410       .  A
C304        H315   1.082       .  S
C305        C314   1.389       .  A
C305        C306   1.384       .  A
C306        C307   1.396       .  A
C306        N312   1.336       .  A
C307        C308   1.394       .  A
C307        H316   1.083       .  S
C308        C311   1.370       .  A
N309        C310   1.359       .  A
N309        H319   1.044       .  S
C310        C311   1.388       .  A
C311        H317   1.083       .  S
N312        C313   1.352       .  A
N312        H320   1.045       .  S
C313        C314   1.401       .  A
C314        H318   1.082       .  S
C321        C326   1.386       .  A
C321        C322   1.400       .  A
C321        N327   1.342   1_565  A
C322        C323   1.400       .  A
C322        H333   1.082       .  S
C323        C332   1.372       .  A
C323        C324   1.386       .  A
C324        C325   1.399       .  A
C324        N330   1.342       .  A
C325        C326   1.399       .  A
C325        H334   1.082       .  S
C326        C329   1.371   1_565  A
N327        C328   1.353       .  A
N327        H337   1.045       .  S
C328        C329   1.392       .  A
C329        H335   1.083       .  S
N330        C331   1.352       .  A
N330        H338   1.044       .  S
C331        C332   1.392       .  A
C332        H336   1.083       .  S
C339        C344   1.386       .  A
C339        C340   1.400   1_554  A
C339        N345   1.342       .  A
C340        C341   1.400       .  A
C340        H351   1.082       .  S
C341        C350   1.372       .  A
C341        C342   1.385   1_556  A
C342        C343   1.404       .  A
C342        N348   1.346       .  A
C343        C344   1.404       .  A
C343        H352   1.082       .  S
C344        C347   1.377       .  A
N345        C346   1.352       .  A
N345        H355   1.045   1_554  S
C346        C347   1.395       .  A
C347        H353   1.082       .  S
N348        C349   1.355   1_554  A
N348        H356   1.045       .  S
C349        C350   1.392       .  A
C350        H354   1.083       .  S
C357        C362   1.384       .  A
C357        C358   1.402       .  A
C357        N363   1.338       .  A
C358        C359   1.399   1_565  A
C358        H369   1.083       .  S
C359        C368   1.378       .  A
C359        C360   1.385       .  A
C360        C361   1.405   1_545  A
C360        N366   1.342       .  A
C361        C362   1.403       .  A
C361        H370   1.082       .  S
C362        C365   1.383       .  A
N363        C364   1.355       .  A
N363        H373   1.045       .  S
C364        C365   1.394       .  A
C365        H371   1.082       .  S
N366        C367   1.355       .  A
N366        H374   1.045       .  S
C367        C368   1.393       .  A
C368        H372   1.083       .  S
C375        C380   1.384       .  A
C375        C376   1.405       .  A
C375        N381   1.341       .  A
C376        C377   1.402       .  A
C376        H387   1.082       .  S
C377        C386   1.384       .  A
C377        C378   1.384       .  A
C378        C379   1.404       .  A
C378        N384   1.339       .  A
C379        C380   1.401       .  A
C379        H388   1.082       .  S
C380        C383   1.382       .  A
N381        C382   1.356       .  A
N381        H391   1.045   1_556  S
C382        C383   1.395       .  A
C383        H389   1.082       .  S
N384        C385   1.356       .  A
N384        H392   1.045       .  S
C385        C386   1.394       .  A
C386        H390   1.082       .  S
C393        C398   1.385       .  A
C393        C394   1.403       .  A
C393        N399   1.347       .  A
C394        C395   1.404       .  A
C394        H405   1.082       .  S
C395        C404   1.373       .  A
C395        C396   1.385       .  A
C396        C397   1.405       .  A
C396        N402   1.350       .  A
C397        C398   1.406       .  A
C397        H406   1.082       .  S
C398        C401   1.377       .  A
N399        C400   1.355       .  A
N399        H409   1.045       .  S
C400        C401   1.397       .  A
C401        H407   1.082       .  S
N402        C403   1.356       .  A
N402        H410   1.044       .  S
C403        C404   1.396       .  A
C404        H408   1.083       .  S
C411        C416   1.384       .  A
C411        C412   1.401       .  A
C411        N417   1.338       .  A
C412        C413   1.399       .  A
C412        H423   1.083       .  S
C413        C422   1.377       .  A
C413        C414   1.384       .  A
C414        C415   1.410       .  A
C414        N420   1.347       .  A
C415        C416   1.408       .  A
C415        H424   1.082       .  S
C416        C419   1.389       .  A
N417        C418   1.355       .  A
N417        H427   1.045       .  S
C418        C419   1.398       .  A
C419        H425   1.082       .  S
N420        C421   1.359       .  A
N420        H428   1.044       .  S
C421        C422   1.394       .  A
C422        H426   1.083       .  S
C429        C434   1.384       .  A
C429        C430   1.408       .  A
C429        N435   1.340       .  A
C430        C431   1.403       .  A
C430        H441   1.082       .  S
C431        C440   1.388   1_556  A
C431        C432   1.384       .  A
C432        C433   1.403       .  A
C432        N438   1.336   1_556  A
C433        C434   1.399       .  A
C433        H442   1.082       .  S
C434        C437   1.383       .  A
N435        C436   1.358       .  A
N435        H445   1.045       .  S
C436        C437   1.393       .  A
C437        H443   1.082       .  S
N438        C439   1.356       .  A
N438        H446   1.045       .  S
C439        C440   1.397       .  A
C440        H444   1.082       .  S
C447        C452   1.384       .  A
C447        C448   1.409       .  A
C447        N453   1.345   1_655  A
C448        C449   1.407       .  A
C448        H459   1.082       .  S
C449        C458   1.387       .  A
C449        C450   1.385       .  A
C450        C451   1.400       .  A
C450        N456   1.338       .  A
C451        C452   1.398       .  A
C451        H460   1.082       .  S
C452        C455   1.376   1_655  A
N453        C454   1.358       .  A
N453        H463   1.044       .  S
C454        C455   1.393       .  A
C455        H461   1.082       .  S
N456        C457   1.353       .  A
N456        H464   1.045       .  S
C457        C458   1.397       .  A
C458        H462   1.082       .  S
C465        C470   1.384       .  A
C465        C466   1.410       .  A
C465        N471   1.352       .  A
C466        C467   1.411       .  A
C466        H477   1.082       .  S
C467        C476   1.386       .  A
C467        C468   1.384       .  A
C468        C469   1.400       .  A
C468        N474   1.343       .  A
C469        C470   1.400       .  A
C469        H478   1.082       .  S
C470        C473   1.372       .  A
N471        C472   1.358       .  A
N471        H481   1.044       .  S
C472        C473   1.394       .  A
C473        H479   1.083       .  S
N474        C475   1.354       .  A
N474        H482   1.045       .  S
C475        C476   1.401       .  A
C476        H480   1.082       .  S
C483        C488   1.384   1_554  A
C483        C484   1.408       .  A
C483        N489   1.343       .  A
C484        C485   1.405       .  A
C484        H495   1.082       .  S
C485        C494   1.387       .  A
C485        C486   1.384       .  A
C486        C487   1.399   1_554  A
C486        N492   1.335       .  A
C487        C488   1.396       .  A
C487        H496   1.083       .  S
C488        C491   1.375       .  A
N489        C490   1.357   1_554  A
N489        H499   1.044       .  S
C490        C491   1.392       .  A
C491        H497   1.083       .  S
N492        C493   1.354       .  A
N492        H500   1.045       .  S
C493        C494   1.396       .  A
C494        H498   1.082       .  S
C501        C506   1.384       .  A
C501        C502   1.410       .  A
C501        N507   1.343       .  A
C502        C503   1.407       .  A
C502        H513   1.082       .  S
C503        C512   1.390       .  A
C503        C504   1.384       .  A
C504        C505   1.402       .  A
C504        N510   1.337       .  A
C505        C506   1.398       .  A
C505        H514   1.082       .  S
C506        C509   1.381       .  A
N507        C508   1.359       .  A
N507        H517   1.045       .  S
C508        C509   1.392       .  A
C509        H515   1.082       .  S
N510        C511   1.356       .  A
N510        H518   1.045       .  S
C511        C512   1.399       .  A
C512        H516   1.082       .  S
C519        C524   1.384       .  A
C519        C520   1.404       .  A
C519        N525   1.341       .  A
C520        C521   1.402       .  A
C520        H531   1.082       .  S
C521        C530   1.381   1_655  A
C521        C522   1.384       .  A
C522        C523   1.404       .  A
C522        N528   1.341       .  A
C523        C524   1.402       .  A
C523        H532   1.082       .  S
C524        C527   1.381       .  A
N525        C526   1.355       .  A
N525        H535   1.045       .  S
C526        C527   1.394       .  A
C527        H533   1.082       .  S
N528        C529   1.356   1_655  A
N528        H536   1.044       .  S
C529        C530   1.395       .  A
C530        H534   1.082       .  S
C537        C542   1.385       .  A
C537        C538   1.408       .  A
C537        N543   1.353       .  A
C538        C539   1.410       .  A
C538        H549   1.082       .  S
C539        C548   1.380       .  A
C539        C540   1.384       .  A
C540        C541   1.403       .  A
C540        N546   1.349       .  A
C541        C542   1.405       .  A
C541        H550   1.082       .  S
C542        C545   1.374       .  A
N543        C544   1.358       .  A
N543        H553   1.044       .  S
C544        C545   1.395       .  A
C545        H551   1.083       .  S
N546        C547   1.356       .  A
N546        H554   1.045       .  S
C547        C548   1.400       .  A
C548        H552   1.082       .  S
C555        C560   1.385       .  A
C555        C556   1.403       .  A
C555        N561   1.347       .  A
C556        C557   1.404       .  A
C556        H567   1.082       .  S
C557        C566   1.373       .  A
C557        C558   1.384       .  A
C558        C559   1.406       .  A
C558        N564   1.351       .  A
C559        C560   1.408       .  A
C559        H568   1.082       .  S
C560        C563   1.379       .  A
N561        C562   1.355       .  A
N561        H571   1.045       .  S
C562        C563   1.399       .  A
C563        H569   1.083       .  S
N564        C565   1.357       .  A
N564        H572   1.045       .  S
C565        C566   1.397       .  A
C566        H570   1.083       .  S
C573        C578   1.384       .  A
C573        C574   1.406       .  A
C573        N579   1.353   1_545  A
C574        C575   1.408       .  A
C574        H585   1.082       .  S
C575        C584   1.376       .  A
C575        C576   1.384       .  A
C576        C577   1.404       .  A
C576        N582   1.351       .  A
C577        C578   1.407       .  A
C577        H586   1.082       .  S
C578        C581   1.373   1_545  A
N579        C580   1.357       .  A
N579        H589   1.044       .  S
C580        C581   1.399       .  A
C581        H587   1.083       .  S
N582        C583   1.356       .  A
N582        H590   1.044       .  S
C583        C584   1.400       .  A
C584        H588   1.083       .  S
C591        C596   1.385       .  A
C591        C592   1.403       .  A
C591        N597   1.348       .  A
C592        C593   1.405       .  A
C592        H603   1.082       .  S
C593        C602   1.374   1_545  A
C593        C594   1.385       .  A
C594        C595   1.400       .  A
C594        N600   1.345   1_545  A
C595        C596   1.402       .  A
C595        H604   1.082       .  S
C596        C599   1.370       .  A
N597        C598   1.355       .  A
N597        H607   1.045       .  S
C598        C599   1.396       .  A
C599        H605   1.083       .  S
N600        C601   1.354       .  A
N600        H608   1.045       .  S
C601        C602   1.397       .  A
C602        H606   1.083       .  S
