geometry optimzed in LAMMPS
_audit_creation_date              2020-11-30 
_audit_creation_method            'lammps2cif' 
_symmetry_space_group_name_H-M    'P1' 
_symmetry_Int_Tables_number       1 
_symmetry_cell_setting            triclinic 
loop_ 
_symmetry_equiv_pos_as_xyz 
  x,y,z 
_cell_length_a                    55.45366 
_cell_length_b                    55.29307369102988 
_cell_length_c                    33.37715028975896 
_cell_angle_alpha                 90.0202005451668 
_cell_angle_beta                  89.84018502739967 
_cell_angle_gamma                 120.10853740167462 
loop_ 
_atom_site_label 
_atom_site_type_symbol 
_atom_site_fract_x 
_atom_site_fract_y 
_atom_site_fract_z 
_atom_site_charge 
O1          O  0.58392156  0.38766029  0.44863217    -0.88500
C2          C  0.60835272  0.43901282  0.54465114     0.87500
Mg3        Mg  0.59103817  0.40229117  0.38845786     1.58100
O4          O  0.53633817  0.40310794  0.53063401    -0.88200
O5          O  0.54878878  0.35976398  0.48756055    -0.75500
C6          C  0.53933508  0.48729760  0.38259805     0.92600
O7          O  0.63523214  0.45000204  0.45761841    -0.75400
O8          O  0.55699957  0.48217895  0.36608986    -0.82900
Mg9        Mg  0.61888936  0.40704782  0.48799566     1.58000
C10         C  0.49235340  0.44515421  0.53657345     0.92500
O11         O  0.60543348  0.36471833  0.51603375    -0.81100
H12         H  0.50014671  0.36712774  0.52753257    -0.06500
C13         C  0.57678926  0.48200788  0.48199317     0.87500
O14         O  0.54514117  0.39207076  0.38495183    -0.75600
O15         O  0.59511025  0.41585507  0.52851167    -0.88400
O16         O  0.50905923  0.44075880  0.55741791    -0.81200
C17         C  0.55765835  0.41529621  0.63345147     0.92600
C18         C  0.59124202  0.34906671  0.54496516     0.92500
Mg19       Mg  0.51986169  0.43760610  0.45350322     1.58000
O20         O  0.52867132  0.47729896  0.41688221    -0.81100
O21         O  0.50422788  0.39622064  0.48691269    -0.75400
O22         O  0.56296348  0.39912432  0.61268400    -0.81200
O23         O  0.64630165  0.39948785  0.44750659    -0.82900
O24         O  0.57624041  0.44227957  0.32584667    -0.81200
C25         C  0.51299211  0.38812270  0.51611216     0.86900
O26         O  0.54378345  0.42746286  0.41209536    -0.88400
O27         O  0.55653940  0.45892248  0.49042663    -0.88500
O28         O  0.58887728  0.48684866  0.44807264    -0.75500
Mg29       Mg  0.55673829  0.38115645  0.54900749     1.58000
O30         O  0.54978420  0.43109467  0.61732032    -0.82900
H31         H  0.55362466  0.35008768  0.43052344    -0.06600
O32         O  0.60468580  0.44363764  0.41096495    -0.88200
H33         H  0.63958852  0.48038267  0.41908049    -0.06500
H34         H  0.50989494  0.39458739  0.38916596    -0.06700
C35         C  0.62702740  0.45880461  0.42835297     0.86900
C36         C  0.56212184  0.36521558  0.45462230     0.87500
C37         C  0.53197719  0.40448879  0.39512487     0.87500
H38         H  0.58482620  0.49837277  0.50442068    -0.06600
O39         O  0.59719304  0.45359501  0.55285079    -0.75700
Mg40       Mg  0.58141198  0.46235082  0.38899691     1.58000
H41         H  0.63033056  0.44760365  0.55025676    -0.06600
C42         C  0.65210148  0.40525055  0.41077706     0.92500
O43         O  0.59631235  0.41619104  0.32327887    -0.82900
C44         C  0.58514312  0.42857491  0.30588610     0.92600
O45         O  0.57644717  0.35528566  0.56711123    -0.82900
Mg46       Mg  0.55242265  0.44505605  0.55196753     1.58200
O47         O  0.63626790  0.40948557  0.38766401    -0.81200
O48         O  0.49454790  0.44713645  0.49853382    -0.82900
O49         O  0.58439863  0.38607277  0.94763939    -0.88500
C50         C  0.61440944  0.43923461  0.04139981     0.87500
Mg51       Mg  0.58923970  0.39880530  0.88684037     1.58100
O52         O  0.54224154  0.40667908  0.03193000    -0.88200
O53         O  0.55003291  0.36035844  0.98905301    -0.75500
C54         C  0.54181956  0.48696794  0.87745373     0.92600
O55         O  0.63685164  0.44773565  0.95221817    -0.75400
O56         O  0.55911172  0.48088324  0.86245295    -0.82900
Mg57       Mg  0.62086481  0.40534340  0.98410475     1.58000
C58         C  0.50550791  0.45631659  0.04007293     0.92500
O59         O  0.60735050  0.36348543  0.01350176    -0.81100
H60         H  0.50441366  0.37251953  0.03323351    -0.06500
C61         C  0.58369492  0.48451462  0.97732983     0.87500
O62         O  0.54373381  0.39036971  0.88757214    -0.75600
O63         O  0.59960944  0.41580687  0.02672018    -0.88400
O64         O  0.51943395  0.44741474  0.05894080    -0.81200
C65         C  0.56612320  0.41990681  0.13353646     0.92600
C66         C  0.59322472  0.34788764  0.04251349     0.92500
Mg67       Mg  0.52469669  0.44172888  0.95505210     1.58000
O68         O  0.53247317  0.47939292  0.91315859    -0.81100
O69         O  0.50862375  0.40158494  0.99240154    -0.75400
O70         O  0.56972220  0.40206092  0.11388576    -0.81200
O71         O  0.64599295  0.39603217  0.94142492    -0.82900
O72         O  0.57308646  0.43766684  0.82441932    -0.81200
C73         C  0.51792044  0.39288132  0.02021282     0.86900
O74         O  0.54488812  0.42760368  0.91262375    -0.88400
O75         O  0.56349597  0.46202059  0.98790789    -0.88500
O76         O  0.59402221  0.48790298  0.94233176    -0.75500
Mg77       Mg  0.56093562  0.38274670  0.04973210     1.58000
O78         O  0.55998406  0.43669482  0.11623298    -0.82900
H79         H  0.55229102  0.34885925  0.93204560    -0.06600
O80         O  0.60521241  0.44108117  0.90713450    -0.88200
H81         H  0.64072580  0.47758780  0.91302492    -0.06500
H82         H  0.50941788  0.39433218  0.89429939    -0.06700
C83         C  0.62811138  0.45621859  0.92320491     0.86900
C84         C  0.56221570  0.36442071  0.95535393     0.87500
C85         C  0.53170797  0.40389270  0.89801124     0.87500
H86         H  0.59311518  0.50158731  0.99860180    -0.06600
O87         O  0.60503034  0.45548258  0.04876774    -0.75700
Mg88       Mg  0.58251796  0.46046376  0.88554908     1.58000
H89         H  0.63630047  0.44665881  0.04599445    -0.06600
C90         C  0.65029151  0.40016199  0.90411691     0.92500
O91         O  0.59171105  0.41039178  0.82124612    -0.82900
C92         C  0.58026186  0.42263969  0.80434873     0.92600
O93         O  0.57875802  0.35425708  0.06537716    -0.82900
Mg94       Mg  0.56127385  0.44942259  0.05038254     1.58200
O95         O  0.63387802  0.40414761  0.88184656    -0.81200
O96         O  0.50531399  0.45743581  0.00186268    -0.82900
O97         O  0.40924794  0.60732337  0.19081150    -0.88500
C98         C  0.37863383  0.55435074  0.28523260     0.87500
Mg99       Mg  0.40484127  0.59400138  0.13021663     1.58100
O100        O  0.45123151  0.58725098  0.27848626    -0.88200
O101        O  0.44322596  0.63286128  0.23279006    -0.75500
C102        C  0.45118873  0.50532926  0.12953006     0.92600
O103        O  0.35656763  0.54529450  0.19577727    -0.75400
O104        O  0.43527798  0.51177265  0.11104485    -0.82900
Mg105      Mg  0.37239848  0.58778103  0.22690331     1.58000
C106        C  0.48849542  0.53792583  0.28815126     0.92500
O107        O  0.38509395  0.62962209  0.25570642    -0.81100
H108        H  0.48872803  0.62181980  0.28011187    -0.06500
C109        C  0.40991689  0.50977001  0.22515539     0.87500
O110        O  0.45037825  0.60279160  0.13162210    -0.75600
O111        O  0.39352314  0.57758748  0.27002385    -0.88400
O112        O  0.47325726  0.54474817  0.30840774    -0.81200
C113        C  0.42440123  0.57330412  0.37836301     0.92600
C114        C  0.39854126  0.64470131  0.28534792     0.92500
Mg115      Mg  0.46882926  0.55283744  0.20289556     1.58000
O116        O  0.45970646  0.51407265  0.16500493    -0.81100
O117        O  0.48515258  0.59341916  0.23859940    -0.75400
O118        O  0.42153850  0.59124522  0.35786406    -0.81200
O119        O  0.34772087  0.59664417  0.18334449    -0.82900
O120        O  0.42133596  0.55423628  0.06992136    -0.81200
C121        C  0.47558025  0.60148987  0.26688675     0.86900
O122        O  0.44872221  0.56605698  0.15925469    -0.88400
O123        O  0.43017681  0.53221536  0.23566618    -0.88500
O124        O  0.39989921  0.50621552  0.19000277    -0.75500
Mg125      Mg  0.43159231  0.61068670  0.29393218     1.58000
O126        O  0.43179973  0.55707851  0.36225995    -0.82900
H127        H  0.44184391  0.64434811  0.17547161    -0.06600
O128        O  0.38877971  0.55201898  0.15157358    -0.88200
H129        H  0.35313549  0.51555409  0.15674800    -0.06500
H130        H  0.48445729  0.59869875  0.13999803    -0.06700
C131        C  0.36563160  0.53687141  0.16706609     0.86900
C132        C  0.43148374  0.62884817  0.19878851     0.87500
C133        C  0.46216991  0.58938904  0.14349600     0.87500
H134        H  0.40010690  0.49287424  0.24669142    -0.06600
O135        O  0.38815787  0.53850798  0.29433650    -0.75700
Mg136      Mg  0.41170354  0.53257678  0.13204775     1.58000
H137        H  0.35664319  0.54679204  0.28906824    -0.06600
C138        C  0.34375327  0.59231739  0.14604702     0.92500
O139        O  0.40258235  0.58140525  0.06527408    -0.82900
C140        C  0.41413113  0.56891152  0.04918611     0.92600
O141        O  0.41304630  0.63854290  0.30825144    -0.82900
Mg142      Mg  0.43182215  0.54440246  0.29757339     1.58200
O143        O  0.36024322  0.58817073  0.12414490    -0.81200
O144        O  0.48886441  0.53848516  0.24994647    -0.82900
O145        O  0.40683070  0.60183916  0.69032065    -0.88500
C146        C  0.37632441  0.55264815  0.78777186     0.87500
Mg147      Mg  0.39928716  0.58645346  0.63073866     1.58100
O148        O  0.44771943  0.58061401  0.77409599    -0.88200
O149        O  0.44274962  0.62793264  0.72864710    -0.75500
C150        C  0.43584358  0.48957393  0.62960060     0.92600
O151        O  0.35150794  0.54270680  0.70055128    -0.75400
O152        O  0.41956303  0.49645351  0.61287436    -0.82900
Mg153      Mg  0.37147988  0.58659201  0.72913619     1.58000
C154        C  0.48321291  0.53085077  0.78527108     0.92500
O155        O  0.38833421  0.63018744  0.75583802    -0.81100
H156        H  0.48616622  0.61372228  0.77104985    -0.06500
C157        C  0.40048481  0.50111605  0.72775075     0.87500
O158        O  0.44320075  0.59127054  0.62885467    -0.75600
O159        O  0.39191862  0.57528446  0.77133816    -0.88400
O160        O  0.46736911  0.53735595  0.80430617    -0.81200
C161        C  0.42585551  0.57247621  0.87639595     0.92600
C162        C  0.40344352  0.64557931  0.78431297     0.92500
Mg163      Mg  0.45965759  0.54057160  0.69990039     1.58000
O164        O  0.44724974  0.49995670  0.66333065    -0.81100
O165        O  0.47900988  0.58268831  0.73211207    -0.75400
O166        O  0.42374663  0.59046820  0.85514151    -0.81200
O167        O  0.34760942  0.59687141  0.68683057    -0.82900
O168        O  0.40869495  0.54173466  0.57073815    -0.81200
C169        C  0.47156904  0.59302854  0.76013923     0.86900
O170        O  0.43926130  0.55365956  0.65700863    -0.88400
O171        O  0.42208397  0.52317342  0.73582219    -0.88500
O172        O  0.38891960  0.49695443  0.69361403    -0.75500
Mg173      Mg  0.43206061  0.60736217  0.79074619     1.58000
O174        O  0.43063201  0.55414092  0.86105429    -0.82900
H175        H  0.43954474  0.63750359  0.67091537    -0.06600
O176        O  0.38084928  0.54469211  0.65439176    -0.88200
H177        H  0.34382856  0.51035216  0.66377363    -0.06500
H178        H  0.47533144  0.58373468  0.63424582    -0.06700
C179        C  0.35814140  0.53180535  0.67205669     0.86900
C180        C  0.42976629  0.62308512  0.69564719     0.87500
C181        C  0.45350904  0.57630307  0.63973716     0.87500
H182        H  0.39080725  0.48516508  0.75068038    -0.06600
O183        O  0.38436423  0.53546611  0.79619431    -0.75700
Mg184      Mg  0.39988685  0.52138264  0.63399791     1.58000
H185        H  0.35483734  0.54670850  0.79313925    -0.06600
C186        C  0.34222753  0.59120026  0.65012506     0.92500
O187        O  0.39381679  0.57212805  0.56638579    -0.82900
C188        C  0.40350246  0.55798485  0.55006582     0.92600
O189        O  0.41720148  0.63803728  0.80639597    -0.82900
Mg190      Mg  0.42688630  0.53849649  0.79672329     1.58200
O191        O  0.35648733  0.58433653  0.62770709    -0.81200
O192        O  0.48162127  0.52796446  0.74713696    -0.82900
O193        O  0.19692812  0.61122290  0.04722531    -0.88500
C194        C  0.17120570  0.55831195  0.95339350     0.87500
Mg195      Mg  0.18870623  0.59816480  0.10791626     1.58100
O196        O  0.13516386  0.59465905  0.96283695    -0.88200
O197        O  0.19060297  0.63866741  0.00625706    -0.75500
C198        C  0.05187924  0.51488412  0.11345694     0.92600
O199        O  0.18466300  0.54836265  0.04161965    -0.75400
O200        O  0.07411017  0.51964055  0.13109570    -0.82900
Mg201      Mg  0.21250110  0.59063417  0.01000632     1.58000
C202        C  0.04874952  0.55096570  0.95690273     0.92500
O203        O  0.24231996  0.63248686  0.98131950    -0.81100
H204        H  0.13514748  0.63077375  0.96265401    -0.06500
C205        C  0.09521042  0.51688438  0.01641869     0.87500
O206        O  0.15374138  0.60937905  0.10921245    -0.75600
O207        O  0.18101275  0.58186400  0.96816934    -0.88400
O208        O  0.06963972  0.55477778  0.93586534    -0.81200
C209        C  0.14475471  0.57970917  0.86219917     0.92600
C210        C  0.24488728  0.64837598  0.95213488     0.92500
Mg211      Mg  0.08400474  0.56299914  0.04056730     1.58000
O212        O  0.05259602  0.52506339  0.07880898    -0.81100
O213        O  0.11013450  0.60321029  0.00494503    -0.75400
O214        O  0.16604495  0.59707435  0.88226414    -0.81200
O215        O  0.24637062  0.59789409  0.05182881    -0.82900
O216        O  0.13320615  0.56001598  0.17016704    -0.81200
C217        C  0.12688668  0.61017739  0.97562367     0.86900
O218        O  0.11713338  0.57358041  0.08292694    -0.88400
O219        O  0.09918871  0.54013906  0.00648246    -0.88500
O220        O  0.10163777  0.51244216  0.05106111    -0.75500
Mg221      Mg  0.17788599  0.61636489  0.94544963     1.58000
O222        O  0.12122560  0.56382347  0.87891271    -0.82900
H223        H  0.20443517  0.64923897  0.06335955    -0.06600
O224        O  0.16068724  0.55627981  0.08716578    -0.88200
H225        H  0.15788186  0.51896684  0.08081025    -0.06500
H226        H  0.11613889  0.60703093  0.10363367    -0.06700
C227        C  0.16747404  0.54043655  0.07078247     0.86900
C228        C  0.19795973  0.63368275  0.03987855     0.87500
C229        C  0.12825221  0.59688741  0.09886268     0.87500
H230        H  0.08659751  0.50002868  0.99476188    -0.06600
O231        O  0.14546209  0.54334006  0.94579339    -0.75700
Mg232      Mg  0.11860120  0.53858796  0.10858851     1.58000
H233        H  0.18468145  0.54967185  0.94881812    -0.06600
C234        C  0.24622582  0.59375425  0.08910312     0.92500
O235        O  0.17932552  0.58598547  0.17302064    -0.82900
C236        C  0.15557230  0.57427147  0.19003460     0.92600
O237        O  0.22447074  0.64259438  0.92887974    -0.82900
Mg238      Mg  0.10932083  0.55182707  0.94431596     1.58200
O239        O  0.22619129  0.59041396  0.11173777    -0.81200
O240        O  0.04987297  0.55200241  0.99496796    -0.82900
O241        O  0.19769976  0.61310827  0.54959889    -0.88500
C242        C  0.17756290  0.56183167  0.45498774     0.87500
Mg243      Mg  0.18727704  0.59867507  0.60936398     1.58100
O244        O  0.13885706  0.59535437  0.46318628    -0.88200
O245        O  0.19234456  0.64097824  0.50851801    -0.75500
C246        C  0.05133475  0.50954705  0.60776968     0.92600
O247        O  0.18895289  0.55172362  0.54349731    -0.75400
O248        O  0.07374543  0.51485350  0.62545911    -0.82900
Mg249      Mg  0.21641293  0.59497072  0.51408928     1.58000
C250        C  0.05256819  0.54904589  0.44806830     0.92500
O251        O  0.24612155  0.63786689  0.48757399    -0.81100
H252        H  0.13625959  0.63011351  0.46293977    -0.06500
C253        C  0.09892449  0.51581690  0.51217092     0.87500
O254        O  0.15067014  0.60744305  0.60685878    -0.75600
O255        O  0.18643183  0.58534085  0.46961330    -0.88400
O256        O  0.07578366  0.55620805  0.43107884    -0.81200
C257        C  0.15223335  0.58345293  0.36264803     0.92600
C258        C  0.24895403  0.65380812  0.45830919     0.92500
Mg259      Mg  0.08309749  0.55884775  0.53527806     1.58000
O260        O  0.05208047  0.51987788  0.57321818    -0.81100
O261        O  0.10930667  0.60011443  0.50116798    -0.75400
O262        O  0.17319498  0.60098036  0.38312403    -0.81200
O263        O  0.24859457  0.60346923  0.55883515    -0.82900
O264        O  0.13001377  0.55680453  0.66772018    -0.81200
C265        C  0.12840695  0.60927664  0.47478314     0.86900
O266        O  0.11529017  0.57062445  0.57985977    -0.88400
O267        O  0.10201465  0.53885515  0.50305189    -0.88500
O268        O  0.10476822  0.51105358  0.54697945    -0.75500
Mg269      Mg  0.18210947  0.61923160  0.44732955     1.58000
O270        O  0.12874131  0.56685703  0.37868616    -0.82900
H271        H  0.20419792  0.65063459  0.56655806    -0.06600
O272        O  0.16169965  0.55692241  0.58642653    -0.88200
H273        H  0.16138216  0.52076708  0.58013254    -0.06500
H274        H  0.11257773  0.60352502  0.59869180    -0.06700
C275        C  0.17038412  0.54235039  0.57088824     0.86900
C276        C  0.19868922  0.63555071  0.54255903     0.87500
C277        C  0.12540566  0.59403035  0.59537763     0.87500
H278        H  0.09171676  0.49953673  0.48968568    -0.06600
O279        O  0.15201751  0.54606651  0.44659639    -0.75700
Mg280      Mg  0.11876969  0.53654111  0.60533530     1.58000
H281        H  0.19169103  0.55387392  0.45139092    -0.06600
C282        C  0.24722003  0.59783660  0.59576068     0.92500
O283        O  0.17553832  0.58525915  0.67358078    -0.82900
C284        C  0.15134219  0.57178177  0.68911642     0.92600
O285        O  0.22902785  0.64742522  0.43376073    -0.82900
Mg286      Mg  0.11491980  0.55303773  0.44246892     1.58200
O287        O  0.22593439  0.59285078  0.61676467    -0.81200
O288        O  0.04976777  0.54638830  0.48612673    -0.82900
O289        O  0.80401078  0.39572747  0.30829263    -0.88500
C290        C  0.82145212  0.44541878  0.21175433     0.87500
Mg291      Mg  0.81342777  0.41067604  0.36792970     1.58100
O292        O  0.86382752  0.41574974  0.22138334    -0.88200
O293        O  0.81164434  0.36900466  0.26774677    -0.75500
C294        C  0.94788908  0.50531302  0.36279995     0.92600
O295        O  0.80937515  0.45562488  0.30093537    -0.75400
O296        O  0.92580263  0.49784013  0.38307537    -0.82900
Mg297      Mg  0.78373168  0.41190655  0.27219944     1.58000
C298        C  0.94905288  0.46705988  0.20536255     0.92500
O299        O  0.75605719  0.36855611  0.24575117    -0.81100
H300        H  0.86880384  0.38236259  0.22248843    -0.06500
C301        C  0.89855618  0.49522729  0.26909334     0.87500
O302        O  0.85183672  0.40458571  0.36613331    -0.75600
O303        O  0.81428575  0.42262231  0.22768129    -0.88400
O304        O  0.92546507  0.45708610  0.18845247    -0.81200
C305        C  0.84959210  0.42534887  0.11986985     0.92600
C306        C  0.75459863  0.35334145  0.21621457     0.92500
Mg307      Mg  0.91811834  0.45569415  0.29255569     1.58000
O308        O  0.94671778  0.49682697  0.32683011    -0.81100
O309        O  0.89438334  0.41348933  0.26019229    -0.75400
O310        O  0.82921677  0.40736955  0.14098330    -0.81200
O311        O  0.75049374  0.40228983  0.31712202    -0.82900
O312        O  0.86930231  0.45384249  0.42652197    -0.81200
C313        C  0.87547001  0.40312657  0.23370801     0.86900
O314        O  0.88570689  0.44205459  0.33780784    -0.88400
O315        O  0.89673887  0.47269135  0.26002490    -0.88500
O316        O  0.89303741  0.49986183  0.30432515    -0.75500
Mg317      Mg  0.82103704  0.39005891  0.20592049     1.58000
O318        O  0.87264702  0.44317919  0.13562287    -0.82900
H319        H  0.79997498  0.35927301  0.32593910    -0.06600
O320        O  0.83732302  0.45267789  0.34491761    -0.88200
H321        H  0.83562980  0.48766470  0.33698012    -0.06500
H322        H  0.89089041  0.41084294  0.35773763    -0.06700
C323        C  0.82769812  0.46611422  0.32844760     0.86900
C324        C  0.80463637  0.37402486  0.30166199     0.87500
C325        C  0.87695525  0.41903266  0.35407031     0.87500
H326        H  0.90463334  0.51125418  0.24637145    -0.06600
O327        O  0.84661356  0.46225064  0.20243589    -0.75700
Mg328      Mg  0.88033545  0.47475027  0.36360070     1.58000
H329        H  0.80612871  0.45180339  0.20766620    -0.06600
C330        C  0.75187012  0.40787709  0.35409989     0.92500
O331        O  0.82374167  0.42455489  0.43188120    -0.82900
C332        C  0.84776848  0.43811066  0.44753794     0.92600
O333        O  0.77500737  0.36052634  0.19221220    -0.82900
Mg334      Mg  0.88525966  0.45789625  0.19939533     1.58200
O335        O  0.77340237  0.41392262  0.37496026    -0.81200
O336        O  0.95178094  0.47024471  0.24328121    -0.82900
O337        O  0.80392816  0.39106981  0.80542633    -0.88500
C338        C  0.82405460  0.44253551  0.71001513     0.87500
Mg339      Mg  0.81214433  0.40533759  0.86559177     1.58100
O340        O  0.86611191  0.41261761  0.72021929    -0.88200
O341        O  0.81310796  0.36543948  0.76470393    -0.75500
C342        C  0.94662743  0.50121297  0.86551998     0.92600
O343        O  0.80932660  0.45142337  0.79867971    -0.75400
O344        O  0.92348328  0.49391357  0.88283839    -0.82900
Mg345      Mg  0.78487934  0.40835230  0.76840207     1.58000
C346        C  0.95165281  0.46236296  0.70788080     0.92500
O347        O  0.75791258  0.36602709  0.73996607    -0.81100
H348        H  0.87069212  0.37899955  0.72173363    -0.06500
C349        C  0.89944417  0.49123165  0.76941087     0.87500
O350        O  0.85102406  0.39991886  0.86535081    -0.75600
O351        O  0.81664481  0.41962767  0.72571616    -0.88400
O352        O  0.92863710  0.45487676  0.69025008    -0.81200
C353        C  0.85347375  0.42428728  0.61882465     0.92600
C354        C  0.75673794  0.35070994  0.71081122     0.92500
Mg355      Mg  0.91902920  0.45131517  0.79420728     1.58000
O356        O  0.94769636  0.49161131  0.83112087    -0.81100
O357        O  0.89547140  0.40958845  0.76068284    -0.75400
O358        O  0.83281777  0.40603226  0.63926232    -0.81200
O359        O  0.75046192  0.39801370  0.81144875    -0.82900
O360        O  0.86690688  0.44921798  0.92590597    -0.81200
C361        C  0.87726639  0.39969058  0.73319886     0.86900
O362        O  0.88543318  0.43759787  0.83807403    -0.88400
O363        O  0.89866987  0.46915978  0.76046427    -0.88500
O364        O  0.89217949  0.49503978  0.80391165    -0.75500
Mg365      Mg  0.82352245  0.38726351  0.70334011     1.58000
O366        O  0.87667693  0.44136583  0.63496538    -0.82900
H367        H  0.80031054  0.35464479  0.82231146    -0.06600
O368        O  0.83619522  0.44742675  0.84323416    -0.88200
H369        H  0.83435073  0.48244532  0.83698705    -0.06500
H370        H  0.89029242  0.40636996  0.85885749    -0.06700
C371        C  0.82680071  0.46118031  0.82724070     0.86900
C372        C  0.80519168  0.36972757  0.79843046     0.87500
C373        C  0.87638514  0.41451264  0.85432336     0.87500
H374        H  0.90582988  0.50747991  0.74694940    -0.06600
O375        O  0.84933215  0.45936027  0.70129175    -0.75700
Mg376      Mg  0.87871322  0.46984188  0.86275144     1.58000
H377        H  0.80881083  0.44897820  0.70549424    -0.06600
C378        C  0.75048988  0.40238383  0.84867971     0.92500
O379        O  0.82153741  0.41889032  0.93005023    -0.82900
C380        C  0.84523200  0.43323139  0.94652340     0.92600
O381        O  0.77757647  0.35772075  0.68773266    -0.82900
Mg382      Mg  0.88810083  0.45510957  0.69946036     1.58200
O383        O  0.77134107  0.40780897  0.87086733    -0.81200
O384        O  0.95375523  0.46523492  0.74593791    -0.82900
O385        O  0.61428192  0.19770471  0.10874599    -0.88500
C386        C  0.56184845  0.17456292  0.20385999     0.87500
Mg387      Mg  0.60086637  0.18892106  0.04786545     1.58100
O388        O  0.59641921  0.13682899  0.19498553    -0.88200
O389        O  0.64108582  0.19115302  0.15054578    -0.75500
C390        C  0.51387211  0.05217756  0.04829299     0.92600
O391        O  0.55238333  0.18705656  0.11450391    -0.75400
O392        O  0.51957492  0.07430792  0.02922337    -0.82900
Mg393      Mg  0.59473104  0.21442459  0.14561346     1.58000
C394        C  0.55319851  0.05132443  0.20501991     0.92500
O395        O  0.63648733  0.24397122  0.17444011    -0.81100
H396        H  0.63185191  0.13568571  0.19465341    -0.06500
C397        C  0.51862500  0.09829267  0.14279971     0.87500
O398        O  0.61056145  0.15276164  0.04868783    -0.75600
O399        O  0.58514543  0.18339455  0.18876062    -0.88400
O400        O  0.55732194  0.07323783  0.22320615    -0.81200
C401        C  0.58191920  0.14769897  0.29579400     0.92600
C402        C  0.65202623  0.24642849  0.20394155     0.92500
Mg403      Mg  0.56273691  0.08401723  0.11960131     1.58000
O404        O  0.52378560  0.05316899  0.08317411    -0.81100
O405        O  0.60340479  0.11005891  0.15397452    -0.75400
O406        O  0.59987560  0.16905465  0.27603639    -0.81200
O407        O  0.60314354  0.24787278  0.10261053    -0.82900
O408        O  0.56186091  0.13204125  0.98764702    -0.81200
C409        C  0.61121851  0.12764581  0.18233383     0.86900
O410        O  0.57421132  0.11688661  0.07591451    -0.88400
O411        O  0.54149475  0.10137588  0.15259774    -0.88500
O412        O  0.51430199  0.10439900  0.10783238    -0.75500
Mg413      Mg  0.61898685  0.17952716  0.21186219     1.58000
O414        O  0.56599184  0.12434519  0.27894863    -0.82900
H415        H  0.65181198  0.20391981  0.09293186    -0.06600
O416        O  0.55907199  0.16203186  0.06923874    -0.88200
H417        H  0.52247231  0.16048831  0.07603086    -0.06500
H418        H  0.60714604  0.11467466  0.05612145    -0.06700
C419        C  0.54388328  0.16961081  0.08567908     0.86900
C420        C  0.63635686  0.19817102  0.11643501     0.87500
C421        C  0.59750204  0.12734348  0.06003009     0.87500
H422        H  0.50203790  0.09077082  0.16483288    -0.06600
O423        O  0.54613328  0.14890969  0.21195014    -0.75700
Mg424      Mg  0.54015441  0.11939576  0.04962491     1.58000
H425        H  0.55406678  0.18880876  0.20817638    -0.06600
C426        C  0.59831529  0.24777109  0.06563027     0.92500
O427        O  0.58843073  0.17821851  0.98255564    -0.82900
C428        C  0.57648197  0.15397014  0.96677960     0.92600
O429        O  0.64586422  0.22587308  0.22722749    -0.82900
Mg430      Mg  0.55382453  0.11220354  0.21409762     1.58200
O431        O  0.59389065  0.22745296  0.04262364    -0.81200
O432        O  0.55157793  0.04984929  0.16683732    -0.82900
O433        O  0.61404357  0.19916433  0.60978005    -0.88500
C434        C  0.56301803  0.17464904  0.70610379     0.87500
Mg435      Mg  0.60016597  0.19128899  0.54949919     1.58100
O436        O  0.59619771  0.13589992  0.69228199    -0.88200
O437        O  0.64131417  0.19131831  0.64869167    -0.75500
C438        C  0.51305693  0.05556443  0.54200142     0.92600
O439        O  0.55214526  0.18878590  0.61841990    -0.75400
O440        O  0.51810355  0.07875809  0.52725938    -0.82900
Mg441      Mg  0.59481848  0.21533354  0.64853881     1.58000
C442        C  0.54900868  0.04884971  0.70055784     0.92500
O443        O  0.63654603  0.24442887  0.67674378    -0.81100
H444        H  0.63075642  0.13314812  0.69024072    -0.06500
C445        C  0.51738253  0.09938115  0.64280855     0.87500
O446        O  0.60893385  0.15444591  0.54811482    -0.75600
O447        O  0.58594177  0.18348166  0.68979818    -0.88400
O448        O  0.55560735  0.07112553  0.72016457    -0.81200
C449        C  0.58420547  0.14634857  0.79439247     0.92600
C450        C  0.65250259  0.24626405  0.70515723     0.92500
Mg451      Mg  0.55993500  0.08374411  0.61614810     1.58000
O452        O  0.52117521  0.05387768  0.57722630    -0.81100
O453        O  0.60101779  0.10816391  0.65050821    -0.75400
O454        O  0.60157974  0.16758410  0.77404155    -0.81200
O455        O  0.60255561  0.24944514  0.60724614    -0.82900
O456        O  0.55940579  0.13621170  0.48749689    -0.81200
C457        C  0.61005651  0.12592414  0.67868798     0.86900
O458        O  0.57229581  0.11813401  0.57414707    -0.88400
O459        O  0.53998929  0.10145798  0.65159619    -0.88500
O460        O  0.51315568  0.10660070  0.60855853    -0.75500
Mg461      Mg  0.61987739  0.17875041  0.71014381     1.58000
O462        O  0.56777461  0.12281931  0.77817671    -0.82900
H463        H  0.65131362  0.20581481  0.59170422    -0.06600
O464        O  0.55838680  0.16460215  0.57139652    -0.88200
H465        H  0.52197267  0.16319908  0.57958325    -0.06500
H466        H  0.60500979  0.11598900  0.55318353    -0.06700
C467        C  0.54341464  0.17201152  0.58886026     0.86900
C468        C  0.63621877  0.19945566  0.61581023     0.87500
C469        C  0.59559076  0.12875682  0.55820726     0.87500
H470        H  0.50095965  0.09175302  0.66511851    -0.06600
O471        O  0.54727394  0.14893458  0.71380423    -0.75700
Mg472      Mg  0.53863106  0.12258393  0.55003959     1.58000
H473        H  0.55555792  0.18900413  0.71196084    -0.06600
C474        C  0.59753264  0.24966701  0.57040294     0.92500
O475        O  0.58779630  0.18224612  0.48429148    -0.82900
C476        C  0.57481686  0.15842857  0.46756927     0.92600
O477        O  0.64759298  0.22521048  0.72672605    -0.82900
Mg478      Mg  0.55383404  0.11147351  0.71319986     1.58200
O479        O  0.59361747  0.22990846  0.54663857    -0.81200
O480        O  0.54705346  0.04839798  0.66243500    -0.82900
O481        O  0.39630984  0.80572128  0.35705950    -0.88500
C482        C  0.44847560  0.82385703  0.45026996     0.87500
Mg483      Mg  0.40930506  0.81211029  0.29613784     1.58100
O484        O  0.42116790  0.86817958  0.44146569    -0.88200
O485        O  0.37197877  0.81594807  0.39870781    -0.75500
C486        C  0.50730014  0.94632749  0.29033067     0.92600
O487        O  0.45490613  0.80818270  0.36133708    -0.75400
O488        O  0.49934532  0.92308593  0.27286266    -0.82900
Mg489      Mg  0.41215265  0.78521694  0.39337289     1.58000
C490        C  0.47217861  0.95350191  0.44932480     0.92500
O491        O  0.37006797  0.75991566  0.42262704    -0.81100
H492        H  0.38835293  0.87388457  0.44069532    -0.06500
C493        C  0.49853768  0.89934533  0.38712752     0.87500
O494        O  0.40532921  0.85186557  0.29514022    -0.75600
O495        O  0.42547783  0.81720525  0.43585019    -0.88400
O496        O  0.46670297  0.93132805  0.46816930    -0.81200
C497        C  0.43352744  0.85563288  0.54205534     0.92600
C498        C  0.35492816  0.75874644  0.45194567     0.92500
Mg499      Mg  0.45883878  0.91934738  0.36405076     1.58000
O500        O  0.49844098  0.94716389  0.32549660    -0.81100
O501        O  0.41804268  0.89692947  0.39953786    -0.75400
O502        O  0.41426330  0.83510503  0.52265230    -0.81200
O503        O  0.39866627  0.75004242  0.35145048    -0.82900
O504        O  0.45312522  0.86522899  0.23229060    -0.81200
C505        C  0.40856956  0.87963254  0.42835099     0.86900
O506        O  0.44392196  0.88555242  0.32085528    -0.89600
O507        O  0.47684774  0.89881998  0.39743203    -0.88500
O508        O  0.50146438  0.89191674  0.35223941    -0.75500
Mg509      Mg  0.39447242  0.82570675  0.45934846     1.58000
O510        O  0.45145176  0.87827594  0.52501351    -0.82900
H511        H  0.36048079  0.80354375  0.34123853    -0.06600
O512        O  0.45203978  0.83547455  0.31594974    -0.88200
H513        H  0.48613467  0.83220178  0.32249314    -0.06500
H514        H  0.41368053  0.89196608  0.30051638    -0.06700
C515        C  0.46512821  0.82548970  0.33238153     0.86900
C516        C  0.37559324  0.80786624  0.36469281     0.87500
C517        C  0.42090404  0.87730094  0.30522555     0.87500
H518        H  0.51526517  0.90576946  0.40863025    -0.06600
O519        O  0.46638139  0.84910139  0.45761721    -0.75700
Mg520      Mg  0.47503607  0.87799253  0.29461086     1.58000
H521        H  0.45404537  0.80790466  0.45464283    -0.06600
C522        C  0.40304386  0.74915109  0.31449265     0.92500
O523        O  0.42135994  0.81981335  0.23126817    -0.82900
C524        C  0.43639678  0.84291364  0.21340461     0.92600
O525        O  0.36280731  0.77945562  0.47574260    -0.82900
Mg526      Mg  0.46425591  0.88915830  0.45955510     1.58200
O527        O  0.41017857  0.77018740  0.29158633    -0.81200
O528        O  0.47338668  0.95449213  0.41103749    -0.82900
O529        O  0.39403534  0.80304930  0.85260663    -0.88500
C530        C  0.44439772  0.82063034  0.94966922     0.87500
Mg531      Mg  0.41032744  0.81257156  0.79335987     1.58100
O532        O  0.41514542  0.86387019  0.94225770    -0.88200
O533        O  0.36867397  0.81298492  0.89313725    -0.75500
C534        C  0.50403815  0.94788036  0.79820369     0.92600
O535        O  0.45358044  0.80715692  0.86035846    -0.75400
O536        O  0.49713645  0.92491983  0.78053763    -0.82900
Mg537      Mg  0.40973258  0.78235935  0.88892848     1.58000
C538        C  0.46699538  0.94893295  0.95817743     0.92500
O539        O  0.36650146  0.75531647  0.91548013    -0.81100
H540        H  0.38253663  0.86991722  0.94213940    -0.06500
C541        C  0.49473688  0.89839444  0.89319564     0.87500
O542        O  0.40476842  0.85169069  0.79489373    -0.75600
O543        O  0.42172828  0.81478745  0.93291214    -0.88400
O544        O  0.45831772  0.92534204  0.97499330    -0.81200
C545        C  0.42442678  0.84758376  0.04196778     0.92600
C546        C  0.35036417  0.75350250  0.94386041     0.92500
Mg547      Mg  0.45504522  0.91841768  0.87020908     1.58000
O548        O  0.49516651  0.94812795  0.83347501    -0.81100
O549        O  0.41341524  0.89486708  0.90361437    -0.75400
O550        O  0.40535698  0.82788185  0.02111233    -0.81200
O551        O  0.39888332  0.74876318  0.84580434    -0.82900
O552        O  0.45346528  0.86959975  0.73634220    -0.81200
C553        C  0.40300610  0.87608452  0.93040048     0.86900
O554        O  0.44131142  0.88545328  0.82508118    -0.88400
O555        O  0.47247710  0.89700561  0.90241146    -0.88500
O556        O  0.49892861  0.89210020  0.85825785    -0.75500
Mg557      Mg  0.38800969  0.82085650  0.95619438     1.58000
O558        O  0.44307787  0.87043137  0.02631888    -0.82900
H559        H  0.35908783  0.80200239  0.83479876    -0.06600
O560        O  0.45148529  0.83638678  0.81790474    -0.88200
H561        H  0.48598113  0.83388454  0.82504306    -0.06500
H562        H  0.41043773  0.89060928  0.80396302    -0.06700
C563        C  0.46453948  0.82614207  0.83365854     0.86900
C564        C  0.37330089  0.80545983  0.85922719     0.87500
C565        C  0.41866639  0.87670809  0.80793079     0.87500
H566        H  0.51081079  0.90450702  0.91570350    -0.06600
O567        O  0.46192216  0.84553343  0.95918602    -0.75700
Mg568      Mg  0.47380160  0.87964878  0.79953716     1.58000
H569        H  0.44967015  0.80447793  0.95350065    -0.06600
C570        C  0.40580530  0.74972695  0.80957378     0.92500
O571        O  0.42595048  0.82368601  0.72963370    -0.82900
C572        C  0.43911947  0.84810180  0.71459635     0.92600
O573        O  0.35683848  0.77395515  0.96767122    -0.82900
Mg574      Mg  0.45774928  0.88445415  0.96295715     1.58200
O575        O  0.41350643  0.77146429  0.78776231    -0.81200
O576        O  0.46940656  0.95187016  0.92009995    -0.82900
C577        C  0.44075039  0.83191808  0.64608130    -0.05900
C578        C  0.43816459  0.85121336  0.67048705     0.00000
C579        C  0.43376222  0.87192925  0.65235684    -0.08600
C580        C  0.43260178  0.87275970  0.61021357    -0.05900
C581        C  0.43502725  0.85332851  0.58602855     0.00000
C582        C  0.43941769  0.83268770  0.60403517    -0.08500
C583        C  0.44367203  0.81221770  0.57889154     0.61900
H584        H  0.44408352  0.81624942  0.66034765     0.12600
H585        H  0.42937869  0.88842476  0.59568415     0.12600
C586        C  0.42904684  0.89225846  0.67714901     0.62100
F587        F  0.44995991  0.79544078  0.60225784    -0.23000
F588        F  0.46549384  0.82676874  0.55235177    -0.20400
F589        F  0.41969078  0.79500474  0.55768264    -0.20000
F590        F  0.45313913  0.91040714  0.69744615    -0.20100
F591        F  0.40770956  0.87763918  0.70437820    -0.20400
F592        F  0.42169052  0.90811607  0.65352682    -0.23100
C593        C  0.45274098  0.85354278  0.10198201    -0.05900
C594        C  0.42610840  0.84408399  0.08575179     0.00000
C595        C  0.40263856  0.83306820  0.11164289    -0.08600
C596        C  0.40699046  0.83325445  0.15325085    -0.05900
C597        C  0.43376932  0.84363503  0.16939908     0.00000
C598        C  0.45692966  0.85293861  0.14339278    -0.08500
C599        C  0.48564832  0.86092952  0.15911944     0.61900
H600        H  0.47038525  0.86130275  0.08172886     0.12600
H601        H  0.38945024  0.82542833  0.17370111     0.12600
C602        C  0.37330117  0.82178189  0.09569992     0.62100
F603        F  0.50445893  0.86612462  0.12838545    -0.23000
F604        F  0.48399348  0.83938698  0.18225445    -0.20400
F605        F  0.49589036  0.88475113  0.18217133    -0.20000
F606        F  0.36583774  0.79825274  0.07277466    -0.20100
F607        F  0.37211095  0.84188640  0.07250718    -0.20400
F608        F  0.35391649  0.81429934  0.12627795    -0.23100
C609        C  0.54382938  0.02518268  0.76641627    -0.05900
C610        C  0.54177539  0.02281652  0.72421673     0.00000
C611        C  0.53103438  0.99575273  0.70711423    -0.08600
C612        C  0.52080105  0.97239737  0.73283769    -0.05900
C613        C  0.52050487  0.97460236  0.77492377     0.00000
C614        C  0.53352491  0.00177710  0.79210277    -0.08500
C615        C  0.53675549  0.00656989  0.83714534     0.61900
H616        H  0.55271534  0.04574014  0.77968744     0.12600
H617        H  0.51141457  0.95176479  0.71971767     0.12600
C618        C  0.52931468  0.99083387  0.66209622     0.62100
F619        F  0.55432778  0.03446602  0.84649368    -0.23000
F620        F  0.54804604  0.99150452  0.85361709    -0.20400
F621        F  0.51115250  0.99842275  0.85459115    -0.20000
F622        F  0.55533328  0.00710068  0.64491118    -0.20100
F623        F  0.51046903  0.99736664  0.64543755    -0.20400
F624        F  0.52053451  0.96324545  0.65268463    -0.23100
C625        C  0.49574898  0.00526390  0.45418338    -0.05900
C626        C  0.47903792  0.97926915  0.47282559     0.00000
C627        C  0.47078428  0.97881148  0.51350407    -0.08600
C628        C  0.48145369  0.00427905  0.53452347    -0.05900
C629        C  0.49926797  0.03010075  0.51632385     0.00000
C630        C  0.50600780  0.03071930  0.47494433    -0.08500
C631        C  0.52489248  0.05790974  0.45271338     0.61900
H632        H  0.50159624  0.00551365  0.42316494     0.12600
H633        H  0.47645726  0.00416360  0.56593960     0.12600
C634        C  0.45101866  0.95183663  0.53533134     0.62100
F635        F  0.53074282  0.05327683  0.41405930    -0.23000
F636        F  0.55003633  0.07292672  0.47255173    -0.20400
F637        F  0.51196445  0.07371015  0.45011694    -0.20000
F638        F  0.46470587  0.93745850  0.54466200    -0.20100
F639        F  0.42809570  0.93534785  0.51163085    -0.20400
F640        F  0.44125946  0.95689797  0.57075798    -0.23100
C641        C  0.57712145  0.17096160  0.89799144    -0.05900
C642        C  0.57887599  0.15137199  0.92275796     0.00000
C643        C  0.58290972  0.13025564  0.90499304    -0.08600
C644        C  0.58474752  0.12951595  0.86292046    -0.05900
C645        C  0.58289653  0.14908550  0.83836043     0.00000
C646        C  0.57866553  0.16998894  0.85598148    -0.08500
C647        C  0.57437714  0.19030329  0.83052242     0.61900
H648        H  0.57391727  0.18683128  0.91190984     0.12600
H649        H  0.58770761  0.11357423  0.84870127     0.12600
C650        C  0.58609933  0.10905428  0.92999986     0.62100
F651        F  0.56701826  0.20645741  0.85350509    -0.23000
F652        F  0.55321605  0.17561811  0.80325266    -0.20400
F653        F  0.59867164  0.20813486  0.81018369    -0.20000
F654        F  0.56120544  0.09113481  0.94894812    -0.20100
F655        F  0.60673944  0.12274617  0.95833210    -0.20400
F656        F  0.59343421  0.09296802  0.90676748    -0.23100
C657        C  0.60400976  0.16284748  0.36257569    -0.05900
C658        C  0.57947786  0.15011658  0.33975584     0.00000
C659        C  0.55334580  0.14024046  0.35919902    -0.08600
C660        C  0.55281696  0.14357584  0.40096653    -0.05900
C661        C  0.57732860  0.15630942  0.42368056     0.00000
C662        C  0.60336906  0.16564164  0.40447946    -0.08500
C663        C  0.63016413  0.17718503  0.42837897     0.61900
H664        H  0.62372850  0.17007932  0.34732045     0.12600
H665        H  0.53312811  0.13618571  0.41638721     0.12600
C666        C  0.52610427  0.12672062  0.33607026     0.62100
F667        F  0.65254332  0.18177550  0.40452604    -0.23000
F668        F  0.62711027  0.15833691  0.45799707    -0.20400
F669        F  0.63633957  0.20231412  0.44581932    -0.20000
F670        F  0.52044106  0.10091318  0.32186718    -0.20100
F671        F  0.52792111  0.14357837  0.30422861    -0.20400
F672        F  0.50387078  0.12265715  0.35983757    -0.23100
C673        C  0.54247310  0.00190983  0.20798539    -0.05900
C674        C  0.54804668  0.02617964  0.22902479     0.00000
C675        C  0.54618290  0.02477779  0.27173091    -0.08600
C676        C  0.53476733  0.99843121  0.29047335    -0.05900
C677        C  0.52557418  0.97350931  0.26874653     0.00000
C678        C  0.53162689  0.97567538  0.22688091    -0.08500
C679        C  0.52568931  0.95063980  0.20119187     0.61900
H680        H  0.54527001  0.00326617  0.17579894     0.12600
H681        H  0.53159921  0.99704514  0.32258793     0.12600
C682        C  0.55513789  0.05038778  0.29809472     0.62100
F683        F  0.53662843  0.95838986  0.16291207    -0.23000
F684        F  0.49719921  0.93324657  0.19768548    -0.20400
F685        F  0.53766797  0.93639613  0.21828652    -0.20000
F686        F  0.53702401  0.06050078  0.29321340    -0.20100
F687        F  0.58201303  0.07089642  0.28829559    -0.20400
F688        F  0.55506387  0.04432230  0.33834788    -0.23100
C689        C  0.46815372  0.99345017  0.97514326    -0.05900
C690        C  0.47619981  0.97375567  0.98445049     0.00000
C691        C  0.49387359  0.97857136  0.01796388    -0.08600
C692        C  0.50454781  0.00397313  0.03872582    -0.05900
C693        C  0.49779779  0.02443702  0.02818945     0.00000
C694        C  0.47795450  0.01840762  0.99731430    -0.08500
C695        C  0.46637733  0.03754544  0.98846519     0.61900
H696        H  0.45409561  0.98914695  0.95022172     0.12600
H697        H  0.51914699  0.00839904  0.06290935     0.12600
C698        C  0.50240366  0.95758762  0.03137436     0.62100
F699        F  0.44242139  0.02421204  0.96550536    -0.23000
F700        F  0.48587169  0.06088479  0.96773386    -0.20400
F701        F  0.45957113  0.04571821  0.02392819    -0.20000
F702        F  0.51363346  0.95051350  0.99949329    -0.20100
F703        F  0.47940249  0.93384926  0.04621543    -0.20400
F704        F  0.52221251  0.96812352  0.06146912    -0.23100
C705        C  0.70535878  0.32367814  0.71419851    -0.05900
C706        C  0.73029117  0.32384926  0.70562180     0.00000
C707        C  0.72947677  0.29811327  0.69877838    -0.08600
C708        C  0.70361404  0.27311450  0.70110022    -0.05900
C709        C  0.67881490  0.27306522  0.70968967     0.00000
C710        C  0.67953067  0.29871850  0.71624851    -0.08500
C711        C  0.65343010  0.29971465  0.72725711     0.61900
H712        H  0.70638244  0.34345096  0.71996526     0.12600
H713        H  0.70239621  0.25326686  0.69516712     0.12600
C714        C  0.75569612  0.29681868  0.68999059     0.62100
F715        F  0.65918497  0.32676052  0.73455202    -0.23000
F716        F  0.64174440  0.28410551  0.76157601    -0.20400
F717        F  0.63425508  0.28904963  0.69650342    -0.20000
F718        F  0.77472793  0.30948309  0.72061773    -0.20100
F719        F  0.76733308  0.31032121  0.65421862    -0.20400
F720        F  0.75021968  0.26956302  0.68662352    -0.23100
C721        C  0.68968757  0.29037337  0.17422350    -0.05900
C722        C  0.67846269  0.27369557  0.20888104     0.00000
C723        C  0.69306342  0.28329975  0.24567265    -0.08600
C724        C  0.71759535  0.30963658  0.24644492    -0.05900
C725        C  0.72871029  0.32598239  0.21173794     0.00000
C726        C  0.71481014  0.31611676  0.17483936    -0.08500
C727        C  0.72635249  0.33269315  0.13637285     0.61900
H728        H  0.67899601  0.28270250  0.14597750     0.12600
H729        H  0.72889074  0.31746687  0.27426990     0.12600
C730        C  0.68335181  0.26605789  0.28392285     0.62100
F731        F  0.70787710  0.32120949  0.10488135    -0.23000
F732        F  0.75062325  0.33299094  0.12579961    -0.20400
F733        F  0.73187555  0.35981819  0.14170521    -0.20000
F734        F  0.68574865  0.24245937  0.27967264    -0.20100
F735        F  0.65592144  0.25828777  0.29200215    -0.20400
F736        F  0.69915798  0.28077755  0.31670830    -0.23100
C737        C  0.82826713  0.43192425  0.51608606    -0.05900
C738        C  0.85027156  0.43512103  0.49137298     0.00000
C739        C  0.87268986  0.43330494  0.50862854    -0.08600
C740        C  0.87265692  0.42936935  0.55032465    -0.05900
C741        C  0.85071443  0.42630737  0.57494554     0.00000
C742        C  0.82797989  0.42742445  0.55763002    -0.08500
C743        C  0.80383154  0.42458599  0.58288157     0.61900
H744        H  0.81111318  0.43296284  0.50244859     0.12600
H745        H  0.88985892  0.42851881  0.56416914     0.12600
C746        C  0.89605102  0.43445176  0.48325523     0.62100
F747        F  0.78567175  0.42955040  0.56075602    -0.23000
F748        F  0.81381242  0.44361974  0.61404042    -0.20400
F749        F  0.78890137  0.39777835  0.59824217    -0.20000
F750        F  0.91217568  0.46094897  0.46739245    -0.20100
F751        F  0.88495220  0.41516127  0.45249249    -0.20400
F752        F  0.91335665  0.42829153  0.50541537    -0.23100
C753        C  0.82344981  0.42519219  0.01394715    -0.05900
C754        C  0.84712350  0.43122361  0.99090323     0.00000
C755        C  0.87097139  0.43372215  0.01055697    -0.08600
C756        C  0.87059985  0.43142108  0.05256989    -0.05900
C757        C  0.84706484  0.42571662  0.07554362     0.00000
C758        C  0.82280723  0.42205865  0.05588925    -0.08500
C759        C  0.79642450  0.41521905  0.07880766     0.61900
H760        H  0.80522331  0.42290831  0.99869249     0.12600
H761        H  0.88887238  0.43392984  0.06799542     0.12600
C762        C  0.89657540  0.43820541  0.98764828     0.62100
F763        F  0.77635542  0.41521934  0.05422178    -0.23000
F764        F  0.80241208  0.43476458  0.10868327    -0.20400
F765        F  0.78521947  0.38890960  0.09562112    -0.20000
F766        F  0.90961066  0.46447684  0.97065172    -0.20100
F767        F  0.88893224  0.41819662  0.95799560    -0.20400
F768        F  0.91567732  0.43636182  0.01220705    -0.23100
C769        C  0.31360027  0.71981519  0.41947730    -0.05900
C770        C  0.32715592  0.73272090  0.45556982     0.00000
C771        C  0.31457499  0.71976500  0.49234770    -0.08600
C772        C  0.28927153  0.69398526  0.49147212    -0.05900
C773        C  0.27574563  0.68103466  0.45530463     0.00000
C774        C  0.28804864  0.69440500  0.41855610    -0.08500
C775        C  0.27474688  0.68190186  0.37843557     0.61900
H776        H  0.32320603  0.73010328  0.39150506     0.12600
H777        H  0.27952523  0.68387328  0.51946757     0.12600
C778        C  0.32786939  0.73271674  0.53224335     0.62100
F779        F  0.29186468  0.69669724  0.34657500    -0.23000
F780        F  0.25014780  0.68232570  0.37446297    -0.20400
F781        F  0.26934901  0.65465875  0.37588024    -0.20000
F782        F  0.32826719  0.75774806  0.53714633    -0.20100
F783        F  0.35484295  0.73747143  0.53344300    -0.20400
F784        F  0.31332425  0.71555995  0.56420608    -0.23100
C785        C  0.02475234  0.48279587  0.66874138    -0.05900
C786        C  0.02409238  0.49263004  0.62982930     0.00000
C787        C  0.99801392  0.48799150  0.61517287    -0.08600
C788        C  0.97512761  0.47744590  0.64163730    -0.05900
C789        C  0.97655059  0.47012368  0.68166496     0.00000
C790        C  0.00133218  0.47108733  0.69458241    -0.08500
C791        C  0.00306889  0.45932230  0.73487795     0.61900
H792        H  0.04413484  0.48500937  0.67956845     0.12600
H793        H  0.95591840  0.47584880  0.63123201     0.12600
C794        C  0.99379539  0.49428092  0.57218994     0.62100
F795        F  0.02663065  0.45682072  0.73763211    -0.23000
F796        F  0.98007339  0.43295199  0.74012498    -0.20400
F797        F  0.00401933  0.47669526  0.76536268    -0.20000
F798        F  0.00351850  0.48173039  0.54589807    -0.20100
F799        F  0.00770710  0.52285632  0.56584745    -0.20400
F800        F  0.96592560  0.48405225  0.56345819    -0.23100
C801        C  0.99788089  0.51940875  0.36501232    -0.05900
C802        C  0.97596803  0.52179399  0.38210554     0.00000
C803        C  0.98115766  0.53727181  0.41826156    -0.08600
C804        C  0.00680134  0.54663541  0.43816247    -0.05900
C805        C  0.02782844  0.54220258  0.42248486     0.00000
C806        C  0.02373361  0.52940124  0.38409809    -0.08500
C807        C  0.04580747  0.52503539  0.36343862     0.61900
H808        H  0.99422006  0.50837100  0.33691357     0.12600
H809        H  0.01037041  0.55705527  0.46683413     0.12600
C810        C  0.96013657  0.54420698  0.43605812     0.62100
F811        F  0.03638348  0.51046848  0.32777897    -0.23000
F812        F  0.05350392  0.50990876  0.38798845    -0.20400
F813        F  0.06883209  0.55067813  0.35449914    -0.20000
F814        F  0.93876496  0.52080582  0.45433658    -0.20100
F815        F  0.94939088  0.55348889  0.40631134    -0.20400
F816        F  0.97225432  0.56516980  0.46451831    -0.23100
C817        C  0.28565512  0.68837734  0.98400664    -0.05900
C818        C  0.27190848  0.67514953  0.94819854     0.00000
C819        C  0.28421900  0.68778985  0.91110210    -0.08600
C820        C  0.30965229  0.71342262  0.91137222    -0.05900
C821        C  0.32313340  0.72687522  0.94726140     0.00000
C822        C  0.31099897  0.71399798  0.98428157    -0.08500
C823        C  0.32491077  0.72681068  0.02391434     0.61900
H824        H  0.27603075  0.67862255  0.01224342     0.12600
H825        H  0.31916418  0.72339468  0.88318888     0.12600
C826        C  0.27114145  0.67401311  0.87146980     0.62100
F827        F  0.31142295  0.70916044  0.05591293    -0.23000
F828        F  0.32453925  0.75132940  0.03015850    -0.20400
F829        F  0.35218201  0.73237685  0.02347425    -0.20000
F830        F  0.24654006  0.67420768  0.86593806    -0.20100
F831        F  0.26577631  0.64672601  0.87130221    -0.20400
F832        F  0.28847388  0.68777074  0.83931832    -0.23100
C833        C  0.00398436  0.50610439  0.12509336    -0.05900
C834        C  0.02448326  0.49923745  0.13481450     0.00000
C835        C  0.01877685  0.47940969  0.16588146    -0.08600
C836        C  0.99381602  0.46911295  0.18814590    -0.05900
C837        C  0.97401110  0.47698557  0.17928861     0.00000
C838        C  0.97879250  0.49527926  0.14650137    -0.08500
C839        C  0.95794613  0.50435329  0.13488400     0.61900
H840        H  0.00818579  0.52085727  0.10106694     0.12600
H841        H  0.98961923  0.45486736  0.21291526     0.12600
C842        C  0.03847225  0.46863408  0.17534179     0.62100
F843        F  0.96840668  0.52494449  0.10570174    -0.23000
F844        F  0.95122888  0.51491342  0.16797962    -0.20400
F845        F  0.93404852  0.48177751  0.11979232    -0.20000
F846        F  0.06154713  0.48891208  0.19546319    -0.20100
F847        F  0.04682262  0.46158293  0.14025814    -0.20400
F848        F  0.02581635  0.44497380  0.19925179    -0.23100
C849        C  0.12361322  0.57159532  0.79461877    -0.05900
C850        C  0.14714073  0.57804766  0.81797229     0.00000
C851        C  0.17164884  0.58171093  0.79878762    -0.08600
C852        C  0.17182912  0.57955792  0.75685968    -0.05900
C853        C  0.14839246  0.57321162  0.73335800     0.00000
C854        C  0.12359537  0.56891699  0.75263418    -0.08500
C855        C  0.09713936  0.56162764  0.72963234     0.61900
H856        H  0.10500309  0.56859244  0.80973255     0.12600
H857        H  0.19051304  0.58255151  0.74201058     0.12600
C858        C  0.19736351  0.58698861  0.82210019     0.62100
F859        F  0.07685336  0.56150357  0.75407147    -0.23000
F860        F  0.08617001  0.53521940  0.71323437    -0.20400
F861        F  0.10292531  0.58100441  0.69952980    -0.20000
F862        F  0.18992698  0.56714979  0.85200529    -0.20100
F863        F  0.20993732  0.61339531  0.83880804    -0.20400
F864        F  0.21688249  0.58547323  0.79788537    -0.23100
C865        C  0.17606860  0.57843706  0.25732739    -0.05900
C866        C  0.15417180  0.57692589  0.23420248     0.00000
C867        C  0.13220837  0.57860504  0.25363584    -0.08600
C868        C  0.13289346  0.58124737  0.29556476    -0.05900
C869        C  0.15458323  0.58243215  0.31857272     0.00000
C870        C  0.17660081  0.58094347  0.29933178    -0.08500
C871        C  0.19991596  0.58081569  0.32297464     0.61900
H872        H  0.19268724  0.57716535  0.24216775     0.12600
H873        H  0.11628257  0.58238641  0.31096756     0.12600
C874        C  0.10839967  0.57829600  0.23066087     0.62100
F875        F  0.21742857  0.57614013  0.29863300    -0.23000
F876        F  0.18874014  0.55984108  0.35153806    -0.20400
F877        F  0.21583611  0.60632891  0.34163218    -0.20000
F878        F  0.09163462  0.55218927  0.21405463    -0.20100
F879        F  0.11893387  0.59829071  0.20068686    -0.20400
F880        F  0.09176308  0.58410777  0.25519271    -0.23100
C881        C  0.97149925  0.51573708  0.93017751    -0.05900
C882        C  0.97284380  0.51902836  0.88835997     0.00000
C883        C  0.99901425  0.53715910  0.87037097    -0.08600
C884        C  0.02311865  0.54881243  0.89449769    -0.05900
C885        C  0.02199080  0.54303004  0.93586137     0.00000
C886        C  0.99539046  0.52690403  0.95440193    -0.08500
C887        C  0.99172999  0.51984723  0.99898299     0.61900
H888        H  0.95134958  0.50275672  0.94376786     0.12600
H889        H  0.04331734  0.56165009  0.88058511     0.12600
C890        C  0.00171930  0.54434992  0.82610980     0.62100
F891        F  0.96397554  0.50366120  0.00986591    -0.23000
F892        F  0.00284400  0.54417250  0.02128842    -0.20400
F893        F  0.00479367  0.50490743  0.00874810    -0.20000
F894        F  0.98141496  0.55058626  0.81504443    -0.20100
F895        F  0.99886557  0.52203321  0.80373307    -0.20400
F896        F  0.02741662  0.56738242  0.81723187    -0.23100
C897        C  0.43008018  0.72326055  0.80284923    -0.05900
C898        C  0.40604071  0.72473911  0.79499016     0.00000
C899        C  0.38099422  0.70014443  0.78514523    -0.08600
C900        C  0.38113348  0.67484166  0.78170759    -0.05900
C901        C  0.40502104  0.67304308  0.79051053     0.00000
C902        C  0.42996915  0.69772355  0.80173590    -0.08500
C903        C  0.45629058  0.69734450  0.81318672     0.61900
H904        H  0.44857312  0.74216028  0.81249301     0.12600
H905        H  0.36217360  0.65596605  0.77337665     0.12600
C906        C  0.35410404  0.70069966  0.77968299     0.62100
F907        F  0.47836003  0.72392638  0.82066694    -0.23000
F908        F  0.46416026  0.68595083  0.78244631    -0.20400
F909        F  0.45151270  0.68169794  0.84769087    -0.20000
F910        F  0.35760361  0.71943836  0.74967961    -0.20100
F911        F  0.34716296  0.70891999  0.81495923    -0.20400
F912        F  0.33206910  0.67471902  0.76937688    -0.23100
C913        C  0.29276374  0.57708764  0.65510823    -0.05900
C914        C  0.31810410  0.59224484  0.63435012     0.00000
C915        C  0.32053213  0.61018462  0.60272683    -0.08600
C916        C  0.29714754  0.61238086  0.59286794    -0.05900
C917        C  0.27134336  0.59674309  0.61289081     0.00000
C918        C  0.26904581  0.57865946  0.64468871    -0.08500
C919        C  0.24184978  0.56057628  0.66699520     0.61900
H920        H  0.29176498  0.56383655  0.67971178     0.12600
H921        H  0.29884156  0.62625201  0.56876590     0.12600
C922        C  0.34781625  0.62732884  0.58017038     0.62100
F923        F  0.24417982  0.54321479  0.69468172    -0.23000
F924        F  0.22115636  0.54381573  0.64019491    -0.20400
F925        F  0.23411291  0.57738414  0.68746528    -0.20000
F926        F  0.35481626  0.60968083  0.56049016    -0.20100
F927        F  0.36879738  0.64386343  0.60674440    -0.20400
F928        F  0.34606493  0.64467264  0.55186279    -0.23100
C929        C  0.42097918  0.69561325  0.27588134    -0.05900
C930        C  0.39845371  0.67100932  0.29132928     0.00000
C931        C  0.37585938  0.67174943  0.30951531    -0.08600
C932        C  0.37721760  0.69770411  0.31357246    -0.05900
C933        C  0.40034012  0.72267506  0.29977262     0.00000
C934        C  0.42240484  0.72166101  0.27987432    -0.08500
C935        C  0.44787529  0.74801450  0.26476761     0.61900
H936        H  0.43767519  0.69424793  0.26110697     0.12600
H937        H  0.36061330  0.69887853  0.32898594     0.12600
C938        C  0.35097174  0.64529965  0.32557072     0.62100
F939        F  0.46715161  0.74233407  0.24724626    -0.23000
F940        F  0.46076182  0.76619750  0.29632371    -0.20400
F941        F  0.43995807  0.76085708  0.23634791    -0.20000
F942        F  0.35980700  0.63318586  0.35387942    -0.20100
F943        F  0.33801458  0.62660426  0.29458530    -0.20400
F944        F  0.33153629  0.65062232  0.34340400    -0.23100
C945        C  0.27792410  0.57465827  0.08720496    -0.05900
C946        C  0.27030951  0.59272031  0.10559272     0.00000
C947        C  0.28728352  0.61116768  0.13587483    -0.08600
C948        C  0.31154667  0.61086619  0.14686573    -0.05900
C949        C  0.31917638  0.59257228  0.12897410     0.00000
C950        C  0.30189734  0.57383125  0.09879379    -0.08500
C951        C  0.30781875  0.55227162  0.08007539     0.61900
H952        H  0.26465128  0.56095481  0.06370536     0.12600
H953        H  0.32481051  0.62499763  0.16998969     0.12600
C954        C  0.28016927  0.63153474  0.15573274     0.62100
F955        F  0.28695807  0.53478226  0.05391381    -0.23000
F956        F  0.30965204  0.53583652  0.10979687    -0.20400
F957        F  0.33254036  0.56547934  0.05872673    -0.20000
F958        F  0.25550821  0.61689698  0.17696509    -0.20100
F959        F  0.27723944  0.64785545  0.12691195    -0.20400
F960        F  0.30068595  0.64919407  0.18215901    -0.23100
C961        C  0.44400422  0.57346848  0.94423064    -0.05900
C962        C  0.42300274  0.57303925  0.92043355     0.00000
C963        C  0.39964029  0.57235868  0.93899008    -0.08600
C964        C  0.39775682  0.57116719  0.98107767    -0.05900
C965        C  0.41842677  0.57088507  0.00502705     0.00000
C966        C  0.44244419  0.57290983  0.98636057    -0.08500
C967        C  0.46668353  0.57507948  0.01037895     0.61900
H968        H  0.46179386  0.57427604  0.92939934     0.12600
H969        H  0.37975789  0.57001962  0.99570209     0.12600
C970        C  0.37632316  0.57193959  0.91458628     0.62100
F971        F  0.49001861  0.58313978  0.98660364    -0.23000
F972        F  0.45924493  0.54940737  0.02716552    -0.20400
F973        F  0.47402451  0.59481825  0.04037045    -0.20000
F974        F  0.36602485  0.55004912  0.88756298    -0.20100
F975        F  0.38627467  0.59688012  0.89403978    -0.20400
F976        F  0.35440964  0.56853427  0.93855489    -0.23100
C977        C  0.39225375  0.56762201  0.48201114    -0.05900
C978        C  0.40903714  0.56107413  0.50601212     0.00000
C979        C  0.43158052  0.55975854  0.48785012    -0.08600
C980        C  0.43595734  0.56445025  0.44633237    -0.05900
C981        C  0.41908924  0.57081168  0.42236103     0.00000
C982        C  0.39684259  0.57260417  0.44050929    -0.08500
C983        C  0.37758227  0.57915299  0.41640260     0.61900
H984        H  0.37531907  0.56885860  0.49619845     0.12600
H985        H  0.45285702  0.56319340  0.43204906     0.12600
C986        C  0.45146914  0.55407098  0.51186247     0.62100
F987        F  0.35563342  0.57678908  0.43929138    -0.23000
F988        F  0.36642595  0.56077758  0.38460284    -0.20400
F989        F  0.39230805  0.60626487  0.40209342    -0.20000
F990        F  0.43744385  0.52701981  0.52635051    -0.20100
F991        F  0.46236166  0.57267042  0.54344593    -0.20400
F992        F  0.47361192  0.55699663  0.48888829    -0.23100
C993        C  0.61932503  0.32245749  0.04365736    -0.05900
C994        C  0.59359788  0.32144887  0.04803172     0.00000
C995        C  0.56885435  0.29507944  0.05212030    -0.08600
C996        C  0.57104443  0.27079568  0.05376902    -0.05900
C997        C  0.59688092  0.27209192  0.05108796     0.00000
C998        C  0.62139479  0.29815771  0.04553542    -0.08500
C999        C  0.64956368  0.30002729  0.04202187     0.61900
H1000       H  0.63794607  0.34259831  0.03926400     0.12600
H1001       H  0.55266607  0.25061005  0.05910715     0.12600
C1002       C  0.54023323  0.29237089  0.05404906     0.62100
F1003       F  0.67092654  0.32725159  0.03624129    -0.23000
F1004       F  0.64928632  0.28414100  0.00982498    -0.20400
F1005       F  0.65513079  0.28995066  0.07655764    -0.20000
F1006       F  0.53630204  0.30489522  0.02079951    -0.20100
F1007       F  0.53794080  0.30504833  0.08840602    -0.20400
F1008       F  0.51907963  0.26468831  0.05471357    -0.23100
C1009       C  0.68423895  0.38342329  0.90680515    -0.05900
C1010       C  0.67544672  0.40041132  0.88761557     0.00000
C1011       C  0.69212302  0.41851993  0.85633446    -0.08600
C1012       C  0.71692626  0.41900998  0.84570905    -0.05900
C1013       C  0.72563724  0.40220374  0.86512004     0.00000
C1014       C  0.70899444  0.38385238  0.89588584    -0.08500
C1015       C  0.71693168  0.36428404  0.91616435     0.61900
H1016       H  0.67142356  0.36960773  0.93061294     0.12600
H1017       H  0.72977893  0.43246553  0.82160891     0.12600
C1018       C  0.68393688  0.43714947  0.83398093     0.62100
F1019       F  0.69657122  0.34630871  0.94271635    -0.23000
F1020       F  0.74143795  0.37969812  0.93724670    -0.20400
F1021       F  0.72063860  0.34825830  0.88764590    -0.20000
F1022       F  0.67987312  0.45395894  0.86062416    -0.20100
F1023       F  0.65968057  0.42053744  0.81316350    -0.20400
F1024       F  0.70409529  0.45438789  0.80662310    -0.23100
C1025       C  0.52257324  0.51910641  0.87086285    -0.05900
C1026       C  0.53114367  0.50196066  0.85197061     0.00000
C1027       C  0.52742871  0.49798405  0.80964960    -0.08600
C1028       C  0.51281908  0.50891096  0.78913828    -0.05900
C1029       C  0.50242422  0.52432717  0.80854427     0.00000
C1030       C  0.50918438  0.53122007  0.84977043    -0.08500
C1031       C  0.50299417  0.55158802  0.87180205     0.61900
H1032       H  0.52619011  0.52275620  0.90273289     0.12600
H1033       H  0.50852221  0.50453256  0.75756569     0.12600
C1034       C  0.53749270  0.48123385  0.78584692     0.62100
F1035       F  0.51742301  0.56030215  0.90759759    -0.23000
F1036       F  0.47485826  0.53901482  0.88046353    -0.20400
F1037       F  0.51105559  0.57516782  0.84854807    -0.20000
F1038       F  0.52526089  0.45432478  0.80081680    -0.20100
F1039       F  0.56619993  0.49391960  0.78824495    -0.20400
F1040       F  0.53076641  0.47945187  0.74560057    -0.23100
C1041       C  0.46274069  0.45829308  0.05691201    -0.05900
C1042       C  0.49096240  0.46760483  0.06415185     0.00000
C1043       C  0.50555403  0.48863402  0.09335880    -0.08600
C1044       C  0.49097148  0.49878362  0.11541321    -0.05900
C1045       C  0.46288162  0.48996983  0.10797438     0.00000
C1046       C  0.44835851  0.46933494  0.07812425    -0.08500
C1047       C  0.41798600  0.45897385  0.06843338     0.61900
H1048       H  0.45219094  0.44261032  0.03398668     0.12600
H1049       H  0.50197090  0.51492269  0.13759185     0.12600
C1050       C  0.53689208  0.50190632  0.09948728     0.62100
F1051       F  0.40676986  0.43542029  0.04437256    -0.23000
F1052       F  0.41568377  0.47955442  0.04824226    -0.20400
F1053       F  0.40243840  0.45209810  0.10337561    -0.20000
F1054       F  0.55054076  0.51101193  0.06310047    -0.20100
F1055       F  0.54304875  0.48280102  0.11614280    -0.20400
F1056       F  0.54728900  0.52476283  0.12486984    -0.23100
C1057       C  0.61616296  0.32248882  0.53979721    -0.05900
C1058       C  0.59184790  0.32278285  0.55141005     0.00000
C1059       C  0.56831310  0.29756958  0.56503962    -0.08600
C1060       C  0.57039876  0.27328951  0.56726444    -0.05900
C1061       C  0.59495203  0.27345764  0.55681537     0.00000
C1062       C  0.61823857  0.29825841  0.54296586    -0.08500
C1063       C  0.64536152  0.29910680  0.53308184     0.61900
H1064       H  0.63392461  0.34168285  0.52911025     0.12600
H1065       H  0.55319980  0.25408050  0.57906537     0.12600
C1066       C  0.54109483  0.29593765  0.57729422     0.62100
F1067       F  0.66536344  0.32502438  0.51878249    -0.23000
F1068       F  0.64066610  0.27933732  0.50410630    -0.20400
F1069       F  0.65573009  0.29331411  0.56713792    -0.20000
F1070       F  0.53147901  0.30560158  0.54652562    -0.20100
F1071       F  0.54523853  0.31186045  0.61128830    -0.20400
F1072       F  0.52047408  0.26881538  0.58594110    -0.23100
C1073       C  0.71992636  0.42641823  0.35452628    -0.05900
C1074       C  0.72779637  0.40834891  0.37192242     0.00000
C1075       C  0.71106694  0.38949255  0.40212452    -0.08600
C1076       C  0.68636558  0.38899545  0.41343917    -0.05900
C1077       C  0.67803919  0.40674849  0.39553703     0.00000
C1078       C  0.69550826  0.42632891  0.36616881    -0.08500
C1079       C  0.68899574  0.44748306  0.34771610     0.61900
H1080       H  0.73314763  0.44057882  0.33127923     0.12600
H1081       H  0.67313249  0.37438947  0.43624288     0.12600
C1082       C  0.71888236  0.36948009  0.42125638     0.62100
F1083       F  0.71025755  0.46621424  0.32292985    -0.23000
F1084       F  0.68518945  0.46261444  0.37758608    -0.20400
F1085       F  0.66515105  0.43377825  0.32495171    -0.20000
F1086       F  0.74392537  0.38446182  0.44128205    -0.20100
F1087       F  0.72152628  0.35321550  0.39201299    -0.20400
F1088       F  0.69897387  0.35179112  0.44851624    -0.23100
C1089       C  0.58598428  0.41604640  0.69087952    -0.05900
C1090       C  0.56215068  0.41631188  0.67744239     0.00000
C1091       C  0.54334829  0.41666099  0.70596357    -0.08600
C1092       C  0.55016662  0.41862274  0.74692108    -0.05900
C1093       C  0.57448449  0.41926243  0.76042015     0.00000
C1094       C  0.59237234  0.41711765  0.73184760    -0.08500
C1095       C  0.61840991  0.41656428  0.74405235     0.61900
H1096       H  0.59981479  0.41516220  0.66869912     0.12600
H1097       H  0.53612205  0.41912007  0.76900591     0.12600
C1098       C  0.51552848  0.41338905  0.69360787     0.62100
F1099       F  0.63393220  0.41683819  0.71130789    -0.23000
F1100       F  0.61103535  0.39244705  0.76558715    -0.20400
F1101       F  0.63509248  0.43984154  0.76706262    -0.20000
F1102       F  0.50130744  0.38984487  0.66991856    -0.20100
F1103       F  0.51966996  0.43665401  0.67247062    -0.20400
F1104       F  0.49888736  0.41031164  0.72642903    -0.23100
C1105       C  0.55613341  0.42323417  0.24651982    -0.05900
C1106       C  0.58116140  0.42626141  0.26148208     0.00000
C1107       C  0.60120174  0.42711187  0.23393629    -0.08600
C1108       C  0.59516799  0.42456276  0.19258094    -0.05900
C1109       C  0.57023630  0.42176519  0.17776078     0.00000
C1110       C  0.55019967  0.42084424  0.20519717    -0.08500
C1111       C  0.52225493  0.41644354  0.19123979     0.61900
H1112       H  0.54096591  0.42249386  0.26773901     0.12600
H1113       H  0.61018328  0.42515408  0.17119577     0.12600
C1114       C  0.62923635  0.43166066  0.24763239     0.62100
F1115       F  0.50462118  0.41265046  0.22308374    -0.23000
F1116       F  0.50929264  0.39296220  0.16719259    -0.20400
F1117       F  0.52611140  0.43949068  0.16986803    -0.20000
F1118       F  0.62550307  0.40850065  0.26866497    -0.20100
F1119       F  0.64212107  0.45514325  0.27171554    -0.20400
F1120       F  0.64687623  0.43569983  0.21569389    -0.23100
C1121       C  0.51665839  0.53878692  0.34721162    -0.05900
C1122       C  0.50432838  0.52681399  0.31010286     0.00000
C1123       C  0.50416851  0.50219599  0.29725261    -0.08600
C1124       C  0.51684483  0.49096844  0.32152261    -0.05900
C1125       C  0.52856718  0.50252354  0.35876978     0.00000
C1126       C  0.52877571  0.52696549  0.37192992    -0.08500
C1127       C  0.54216850  0.54066730  0.41140079     0.61900
H1128       H  0.51626074  0.55724870  0.35705896     0.12600
H1129       H  0.51684955  0.47220659  0.31215264     0.12600
C1130       C  0.48922652  0.48661109  0.25935343     0.62100
F1131       F  0.54234038  0.56555841  0.41705695    -0.23000
F1132       F  0.56945458  0.54631564  0.41213333    -0.20400
F1133       F  0.52765504  0.52303142  0.44283608    -0.20000
F1134       F  0.50277649  0.50255713  0.22602104    -0.20100
F1135       F  0.46192306  0.48096797  0.25997724    -0.20400
F1136       F  0.48855344  0.46133352  0.25569975    -0.23100
C1137       C  0.46984206  0.44674350  0.60054672    -0.05900
C1138       C  0.47148608  0.45010045  0.55850244     0.00000
C1139       C  0.45535651  0.46053522  0.54010585    -0.08600
C1140       C  0.44191609  0.47089452  0.56483968    -0.05900
C1141       C  0.44392597  0.47131456  0.60692094     0.00000
C1142       C  0.45614174  0.45687698  0.62505831    -0.08500
C1143       C  0.45554502  0.45259889  0.67005170     0.61900
H1144       H  0.48071954  0.43738495  0.61474289     0.12600
H1145       H  0.43119343  0.48051326  0.55109925     0.12600
C1146       C  0.45290239  0.46199495  0.49487194     0.62100
F1147       F  0.46069310  0.43125032  0.67967604    -0.23000
F1148       F  0.42957536  0.44544896  0.68535107    -0.20400
F1149       F  0.47572568  0.47684363  0.68811454    -0.20000
F1150       F  0.44411460  0.43598468  0.47816093    -0.20100
F1151       F  0.47835606  0.48139095  0.47872981    -0.20400
F1152       F  0.43375111  0.46994669  0.48424783    -0.23100
loop_ 
_geom_bond_atom_site_label_1 
_geom_bond_atom_site_label_2 
_geom_bond_distance 
_geom_bond_site_symmetry_2 
_ccdc_geom_bond_type 
O1           Mg3   2.126       .  S
O1           Mg9   2.136       .  S
O1           C36   1.239       .  S
C2           O15   1.236       .  S
C2           O39   1.268       .  A
C2           H41   1.080       .  S
Mg3          O32   2.152       .  S
Mg3          O47   2.334       .  S
Mg3          O43   2.276       .  S
Mg3          O14   2.317       .  S
O4          Mg46   2.147       .  S
O4          Mg29   2.124       .  S
O4           C25   1.235       .  S
O5           C36   1.272       .  A
O5          Mg29   2.298       .  S
C6            O8   1.272       .  A
C6           O20   1.278       .  A
C6         C1125   1.485       .  S
O7           C35   1.274       .  A
O7           Mg9   2.308       .  S
O8          Mg40   2.262       .  S
Mg9          O15   2.107       .  S
Mg9          O23   2.222       .  S
Mg9          O11   2.271       .  S
C10          O48   1.275       .  A
C10          O16   1.277       .  A
C10        C1138   1.504       .  S
O11          C18   1.270       .  A
H12          C25   1.081       .  S
C13          O27   1.237       .  S
C13          O28   1.272       .  A
C13          H38   1.084       .  S
O14          C37   1.273       .  A
O15         Mg29   2.139       .  S
O16         Mg46   2.301       .  S
C17          O30   1.276       .  A
C17          O22   1.276       .  A
C17        C1090   1.486       .  S
C18          O45   1.272       .  A
C18        C1058   1.486       .  S
Mg19         O26   2.173       .  S
Mg19         O27   2.157       .  S
Mg19         O20   2.339       .  S
Mg19         O21   2.289       .  S
Mg19         O48   2.288       .  S
O21          C25   1.268       .  A
O22         Mg29   2.298       .  S
O23          C42   1.266       .  A
O24          C44   1.279       .  A
O24         Mg40   2.332       .  S
O26         Mg40   2.150       .  S
O26          C37   1.237       .  S
O27         Mg46   2.164       .  S
O28         Mg40   2.310       .  S
Mg29         O45   2.276       .  S
O30         Mg46   2.294       .  S
H31          C36   1.084       .  S
O32         Mg40   2.149       .  S
O32          C35   1.239       .  S
H33          C35   1.082       .  S
H34          C37   1.080       .  S
O39         Mg46   2.283       .  S
C42          O47   1.277       .  A
C42        C1077   1.487       .  S
O43          C44   1.272       .  A
C44        C1106   1.495       .  S
O49         Mg51   2.120       .  S
O49         Mg57   2.135       .  S
O49          C84   1.238       .  S
C50          O63   1.236       .  S
C50          O87   1.267       .  A
C50          H89   1.080       .  S
Mg51         O80   2.152       .  S
Mg51         O95   2.347       .  S
Mg51         O91   2.266       .  S
Mg51         O62   2.325       .  S
O52         Mg94   2.140       .  S
O52         Mg77   2.135       .  S
O52          C73   1.235       .  S
O53          C84   1.271       .  A
O53         Mg77   2.292   1_556  S
C54          O56   1.267       .  A
C54          O68   1.282       .  A
C54        C1026   1.502       .  S
O55          C83   1.274       .  A
O55         Mg57   2.308       .  S
O56         Mg88   2.243       .  S
Mg57         O63   2.103   1_556  S
Mg57         O71   2.224       .  S
Mg57         O59   2.267   1_556  S
C58          O96   1.277       .  A
C58          O64   1.273       .  A
C58        C1042   1.479       .  S
O59          C66   1.270       .  A
H60          C73   1.082       .  S
C61          O75   1.236       .  S
C61          O76   1.271       .  A
C61          H86   1.084       .  S
O62          C85   1.274       .  A
O63         Mg77   2.142       .  S
O64         Mg94   2.284       .  S
C65          O78   1.277       .  A
C65          O70   1.281       .  A
C65        C1109   1.490       .  S
C66          O93   1.277       .  A
C66         C994   1.484       .  S
Mg67         O74   2.176       .  S
Mg67         O75   2.164       .  S
Mg67         O68   2.361       .  S
Mg67         O69   2.299       .  S
Mg67         O96   2.297   1_556  S
O69          C73   1.269   1_556  A
O70         Mg77   2.333       .  S
O71          C90   1.266       .  A
O72          C92   1.276       .  A
O72         Mg88   2.317       .  S
O74         Mg88   2.158       .  S
O74          C85   1.237       .  S
O75         Mg94   2.182   1_556  S
O76         Mg88   2.310       .  S
Mg77         O93   2.301       .  S
O78         Mg94   2.298       .  S
H79          C84   1.084       .  S
O80         Mg88   2.147       .  S
O80          C83   1.240       .  S
H81          C83   1.082       .  S
H82          C85   1.081       .  S
O87         Mg94   2.277       .  S
C90          O95   1.279       .  A
C90        C1010   1.492       .  S
O91          C92   1.270       .  A
C92        C1093   1.493       .  S
O97         Mg99   2.125       .  S
O97        Mg105   2.137       .  S
O97         C132   1.240       .  S
C98         O111   1.235       .  S
C98         O135   1.266       .  A
C98         H137   1.080       .  S
Mg99        O128   2.148       .  S
Mg99        O143   2.338       .  S
Mg99        O139   2.261       .  S
Mg99        O110   2.320       .  S
O100       Mg142   2.149       .  S
O100       Mg125   2.132       .  S
O100        C121   1.234       .  S
O101        C132   1.273       .  A
O101       Mg125   2.299       .  S
C102        O104   1.267       .  A
C102        O116   1.278       .  A
C102       C1045   1.486       .  S
O103        C131   1.273       .  A
O103       Mg105   2.303       .  S
O104       Mg136   2.242       .  S
Mg105       O111   2.106       .  S
Mg105       O119   2.216       .  S
Mg105       O107   2.267       .  S
C106        O144   1.275       .  A
C106        O112   1.277       .  A
C106       C1122   1.493       .  S
O107        C114   1.269       .  A
H108        C121   1.081       .  S
C109        O123   1.236       .  S
C109        O124   1.272       .  A
C109        H134   1.083       .  S
O110        C133   1.273       .  A
O111       Mg125   2.139       .  S
O112       Mg142   2.318       .  S
C113        O126   1.277       .  A
C113        O118   1.279       .  A
C113        C981   1.490       .  S
C114        O141   1.275       .  A
C114        C930   1.471       .  S
Mg115       O122   2.174       .  S
Mg115       O123   2.151       .  S
Mg115       O116   2.316       .  S
Mg115       O117   2.289       .  S
Mg115       O144   2.286       .  S
O117        C121   1.268       .  A
O118       Mg125   2.327       .  S
O119        C138   1.266       .  A
O120        C140   1.274       .  A
O120       Mg136   2.318       .  S
O122       Mg136   2.159       .  S
O122        C133   1.237       .  S
O123       Mg142   2.161       .  S
O124       Mg136   2.309       .  S
Mg125       O141   2.290       .  S
O126       Mg142   2.270       .  S
H127        C132   1.084       .  S
O128       Mg136   2.136       .  S
O128        C131   1.239       .  S
H129        C131   1.082       .  S
H130        C133   1.080       .  S
O135       Mg142   2.278       .  S
C138        O143   1.277       .  A
C138        C949   1.485       .  S
O139        C140   1.272       .  A
C140        C965   1.488       .  S
O145       Mg147   2.121       .  S
O145       Mg153   2.136       .  S
O145        C180   1.237       .  S
C146        O159   1.236       .  S
C146        O183   1.267       .  A
C146        H185   1.080       .  S
Mg147       O176   2.151       .  S
Mg147       O191   2.319       .  S
Mg147       O187   2.257       .  S
Mg147       O158   2.314       .  S
O148       Mg190   2.151       .  S
O148       Mg173   2.130       .  S
O148        C169   1.234       .  S
O149        C180   1.270       .  A
O149       Mg173   2.293       .  S
C150        O152   1.272       .  A
C150        O164   1.279       .  A
C150       C1141   1.498       .  S
O151        C179   1.274       .  A
O151       Mg153   2.309       .  S
O152       Mg184   2.256       .  S
Mg153       O159   2.093       .  S
Mg153       O167   2.199       .  S
Mg153       O155   2.285       .  S
C154        O192   1.280       .  A
C154        O160   1.272       .  A
C154       C1029   1.503       .  S
O155        C162   1.272       .  A
H156        C169   1.081       .  S
C157        O171   1.237       .  S
C157        O172   1.272       .  A
C157        H182   1.084       .  S
O158        C181   1.273       .  A
O159       Mg173   2.137       .  S
O160       Mg190   2.292       .  S
C161        O174   1.276       .  A
C161        O166   1.274       .  A
C161        C962   1.480       .  S
C162        O189   1.273       .  A
C162        C901   1.491       .  S
Mg163       O170   2.164       .  S
Mg163       O171   2.163       .  S
Mg163       O164   2.336       .  S
Mg163       O165   2.286       .  S
Mg163       O192   2.306       .  S
O165        C169   1.267       .  A
O166       Mg173   2.295       .  S
O167        C186   1.263       .  A
O168        C188   1.276       .  A
O168       Mg184   2.325       .  S
O170       Mg184   2.154       .  S
O170        C181   1.237       .  S
O171       Mg190   2.167       .  S
O172       Mg184   2.308       .  S
Mg173       O189   2.286       .  S
O174       Mg190   2.285       .  S
H175        C180   1.084       .  S
O176       Mg184   2.145       .  S
O176        C179   1.240       .  S
H177        C179   1.082       .  S
H178        C181   1.080       .  S
O183       Mg190   2.279       .  S
C186        O191   1.275       .  A
C186        C914   1.467       .  S
O187        C188   1.271       .  A
C188        C978   1.493       .  S
O193       Mg195   2.121       .  S
O193       Mg201   2.136       .  S
O193        C228   1.239       .  S
C194        O207   1.235       .  S
C194        O231   1.266       .  A
C194        H233   1.080       .  S
Mg195       O224   2.157       .  S
Mg195       O239   2.327       .  S
Mg195       O235   2.256       .  S
Mg195       O206   2.313       .  S
O196       Mg238   2.155       .  S
O196       Mg221   2.128       .  S
O196        C217   1.234       .  S
O197        C228   1.272       .  A
O197       Mg221   2.296   1_554  S
C198        O200   1.271       .  A
C198        O212   1.278       .  A
C198        C834   1.497       .  S
O199        C227   1.274       .  A
O199       Mg201   2.309       .  S
O200       Mg232   2.268       .  S
Mg201       O207   2.097   1_554  S
Mg201       O215   2.212       .  S
Mg201       O203   2.272   1_554  S
C202        O240   1.272       .  A
C202        O208   1.277       .  A
C202        C885   1.497       .  S
O203        C210   1.271       .  A
H204        C217   1.082       .  S
C205        O219   1.236       .  S
C205        O220   1.271       .  A
C205        H230   1.084   1_554  S
O206        C229   1.272       .  A
O207       Mg221   2.140       .  S
O208       Mg238   2.305       .  S
C209        O222   1.277       .  A
C209        O214   1.277       .  A
C209        C850   1.489       .  S
C210        O237   1.276       .  A
C210        C818   1.493       .  S
Mg211       O218   2.157       .  S
Mg211       O219   2.159       .  S
Mg211       O212   2.321       .  S
Mg211       O213   2.284       .  S
Mg211       O240   2.265   1_554  S
O213        C217   1.267   1_554  A
O214       Mg221   2.307       .  S
O215        C234   1.264       .  A
O216        C236   1.274       .  A
O216       Mg232   2.308       .  S
O218       Mg232   2.155       .  S
O218        C229   1.236       .  S
O219       Mg238   2.161   1_554  S
O220       Mg232   2.303       .  S
Mg221       O237   2.306       .  S
O222       Mg238   2.279       .  S
H223        C228   1.084       .  S
O224       Mg232   2.148       .  S
O224        C227   1.240       .  S
H225        C227   1.082       .  S
H226        C229   1.081       .  S
O231       Mg238   2.277       .  S
C234        O239   1.276       .  A
C234        C946   1.473       .  S
O235        C236   1.272       .  A
C236        C866   1.487       .  S
O241       Mg243   2.117       .  S
O241       Mg249   2.127       .  S
O241        C276   1.237       .  S
C242        O255   1.237       .  S
C242        O279   1.268       .  A
C242        H281   1.080       .  S
Mg243       O272   2.156       .  S
Mg243       O287   2.336       .  S
Mg243       O283   2.253       .  S
Mg243       O254   2.313       .  S
O244       Mg286   2.145       .  S
O244       Mg269   2.143       .  S
O244        C265   1.235       .  S
O245        C276   1.270       .  A
O245       Mg269   2.293       .  S
C246        O248   1.272       .  A
C246        O260   1.278       .  A
C246        C786   1.509       .  S
O247        C275   1.275       .  A
O247       Mg249   2.311       .  S
O248       Mg280   2.261       .  S
Mg249       O255   2.092       .  S
Mg249       O263   2.193       .  S
Mg249       O251   2.279       .  S
C250        O288   1.279       .  A
C250        O256   1.273       .  A
C250        C805   1.497       .  S
O251        C258   1.271       .  A
H252        C265   1.081       .  S
C253        O267   1.235       .  S
C253        O268   1.270       .  A
C253        H278   1.083       .  S
O254        C277   1.273       .  A
O255       Mg269   2.139       .  S
O256       Mg286   2.296       .  S
C257        O270   1.274       .  A
C257        O262   1.277       .  A
C257        C869   1.480       .  S
C258        O285   1.277       .  A
C258        C773   1.496       .  S
Mg259       O266   2.162       .  S
Mg259       O267   2.153       .  S
Mg259       O260   2.340       .  S
Mg259       O261   2.298       .  S
Mg259       O288   2.307       .  S
O261        C265   1.269       .  A
O262       Mg269   2.315       .  S
O263        C282   1.264       .  A
O264        C284   1.271       .  A
O264       Mg280   2.299       .  S
O266       Mg280   2.163       .  S
O266        C277   1.237       .  S
O267       Mg286   2.155       .  S
O268       Mg280   2.300       .  S
Mg269       O285   2.309       .  S
O270       Mg286   2.260       .  S
H271        C276   1.084       .  S
O272       Mg280   2.153       .  S
O272        C275   1.240       .  S
H273        C275   1.082       .  S
H274        C277   1.081       .  S
O279       Mg286   2.280       .  S
C282        O287   1.277       .  A
C282        C917   1.485       .  S
O283        C284   1.272       .  A
C284        C853   1.492       .  S
O289       Mg291   2.119       .  S
O289       Mg297   2.129       .  S
O289        C324   1.238       .  S
C290        O303   1.235       .  S
C290        O327   1.267       .  A
C290        H329   1.080       .  S
Mg291       O320   2.156       .  S
Mg291       O335   2.326       .  S
Mg291       O331   2.244       .  S
Mg291       O302   2.318       .  S
O292       Mg334   2.145       .  S
O292       Mg317   2.131       .  S
O292        C313   1.236       .  S
O293        C324   1.271       .  A
O293       Mg317   2.296       .  S
C294        O296   1.271       .  A
C294        O308   1.279       .  A
C294        C802   1.501       .  S
O295        C323   1.275       .  A
O295       Mg297   2.311       .  S
O296       Mg328   2.278       .  S
Mg297       O303   2.100       .  S
Mg297       O311   2.220       .  S
Mg297       O299   2.279       .  S
C298        O336   1.277       .  A
C298        O304   1.270       .  A
C298        C837   1.485       .  S
O299        C306   1.272       .  A
H300        C313   1.082       .  S
C301        O315   1.236       .  S
C301        O316   1.272       .  A
C301        H326   1.083       .  S
O302        C325   1.273       .  A
O303       Mg317   2.141       .  S
O304       Mg334   2.281       .  S
C305        O318   1.273       .  A
C305        O310   1.277       .  A
C305        C757   1.488       .  S
C306        O333   1.275       .  A
C306        C725   1.481       .  S
Mg307       O314   2.169       .  S
Mg307       O315   2.143       .  S
Mg307       O308   2.321       .  S
Mg307       O309   2.296       .  S
Mg307       O336   2.305       .  S
O309        C313   1.269       .  A
O310       Mg317   2.319       .  S
O311        C330   1.265       .  A
O312        C332   1.276       .  A
O312       Mg328   2.325       .  S
O314       Mg328   2.153       .  S
O314        C325   1.237       .  S
O315       Mg334   2.157       .  S
O316       Mg328   2.313       .  S
Mg317       O333   2.284       .  S
O318       Mg334   2.262       .  S
H319        C324   1.085       .  S
O320       Mg328   2.157       .  S
O320        C323   1.240       .  S
H321        C323   1.081       .  S
H322        C325   1.081       .  S
O327       Mg334   2.275       .  S
C330        O335   1.275       .  A
C330       C1074   1.472       .  S
O331        C332   1.270       .  A
C332        C738   1.487       .  S
O337       Mg339   2.123       .  S
O337       Mg345   2.139       .  S
O337        C372   1.239       .  S
C338        O351   1.235       .  S
C338        O375   1.267       .  A
C338        H377   1.080       .  S
Mg339       O368   2.153       .  S
Mg339       O383   2.340       .  S
Mg339       O379   2.253       .  S
Mg339       O350   2.321       .  S
O340       Mg382   2.147       .  S
O340       Mg365   2.132       .  S
O340        C361   1.236       .  S
O341        C372   1.272       .  A
O341       Mg365   2.298       .  S
C342        O344   1.273       .  A
C342        O356   1.278       .  A
C342        C882   1.495       .  S
O343        C371   1.272       .  A
O343       Mg345   2.302       .  S
O344       Mg376   2.253       .  S
Mg345       O351   2.099       .  S
Mg345       O359   2.219       .  S
Mg345       O347   2.260       .  S
C346        O384   1.278       .  A
C346        O352   1.273       .  A
C346        C789   1.502       .  S
O347        C354   1.270       .  A
H348        C361   1.082       .  S
C349        O363   1.236       .  S
C349        O364   1.271       .  A
C349        H374   1.084       .  S
O350        C373   1.274       .  A
O351       Mg365   2.142       .  S
O352       Mg382   2.274       .  S
C353        O366   1.274       .  A
C353        O358   1.278       .  A
C353        C741   1.483       .  S
C354        O381   1.275       .  A
C354        C706   1.484       .  S
Mg355       O362   2.181       .  S
Mg355       O363   2.155       .  S
Mg355       O356   2.338       .  S
Mg355       O357   2.294       .  S
Mg355       O384   2.322       .  S
O357        C361   1.269       .  A
O358       Mg365   2.319       .  S
O359        C378   1.266       .  A
O360        C380   1.277       .  A
O360       Mg376   2.328       .  S
O362       Mg376   2.159       .  S
O362        C373   1.238       .  S
O363       Mg382   2.154       .  S
O364       Mg376   2.303       .  S
Mg365       O381   2.294       .  S
O366       Mg382   2.266       .  S
H367        C372   1.085       .  S
O368       Mg376   2.144       .  S
O368        C371   1.239       .  S
H369        C371   1.082       .  S
H370        C373   1.081       .  S
O375       Mg382   2.278       .  S
C378        O383   1.278       .  A
C378       C1013   1.477       .  S
O379        C380   1.271       .  A
C380        C754   1.493       .  S
O385       Mg387   2.136       .  S
O385       Mg393   2.131       .  S
O385        C420   1.239       .  S
C386        O399   1.235       .  S
C386        O423   1.266       .  A
C386        H425   1.081       .  S
Mg387       O416   2.151       .  S
Mg387       O431   2.355       .  S
Mg387       O427   2.275   1_554  S
Mg387       O398   2.316       .  S
O388       Mg430   2.146       .  S
O388       Mg413   2.120       .  S
O388        C409   1.235       .  S
O389        C420   1.273       .  A
O389       Mg413   2.302       .  S
C390        O392   1.270       .  A
C390        O404   1.278       .  A
C390        C693   1.493       .  S
O391        C419   1.274       .  A
O391       Mg393   2.309       .  S
O392       Mg424   2.265       .  S
Mg393       O399   2.094       .  S
Mg393       O407   2.198       .  S
Mg393       O395   2.274       .  S
C394        O432   1.278       .  A
C394        O400   1.269       .  A
C394        C674   1.503       .  S
O395        C402   1.272       .  A
H396        C409   1.081       .  S
C397        O411   1.237       .  S
C397        O412   1.271       .  A
C397        H422   1.083       .  S
O398        C421   1.273       .  A
O399       Mg413   2.138       .  S
O400       Mg430   2.279       .  S
C401        O414   1.273       .  A
C401        O406   1.280       .  A
C401        C658   1.485       .  S
C402        O429   1.274       .  A
C402        C722   1.494       .  S
Mg403       O410   2.161       .  S
Mg403       O411   2.156       .  S
Mg403       O404   2.317       .  S
Mg403       O405   2.287       .  S
Mg403       O432   2.294       .  S
O405        C409   1.268       .  A
O406       Mg413   2.328       .  S
O407        C426   1.263       .  A
O408        C428   1.274       .  A
O408       Mg424   2.315   1_556  S
O410       Mg424   2.151       .  S
O410        C421   1.237       .  S
O411       Mg430   2.153       .  S
O412       Mg424   2.304       .  S
Mg413       O429   2.285       .  S
O414       Mg430   2.268       .  S
H415        C420   1.084       .  S
O416       Mg424   2.147       .  S
O416        C419   1.240       .  S
H417        C419   1.081       .  S
H418        C421   1.081       .  S
O423       Mg430   2.275       .  S
C426        O431   1.279       .  A
C426        C997   1.469       .  S
O427        C428   1.274       .  A
C428        C642   1.488       .  S
O433       Mg435   2.122       .  S
O433       Mg441   2.135       .  S
O433        C468   1.239       .  S
C434        O447   1.235       .  S
C434        O471   1.266       .  A
C434        H473   1.081       .  S
Mg435       O464   2.154       .  S
Mg435       O479   2.341       .  S
Mg435       O475   2.263       .  S
Mg435       O446   2.320       .  S
O436       Mg478   2.154       .  S
O436       Mg461   2.139       .  S
O436        C457   1.234       .  S
O437        C468   1.271       .  A
O437       Mg461   2.294       .  S
C438        O440   1.267       .  A
C438        O452   1.280       .  A
C438        C629   1.491       .  S
O439        C467   1.273       .  A
O439       Mg441   2.301       .  S
O440       Mg472   2.232       .  S
Mg441       O447   2.090       .  S
Mg441       O455   2.197       .  S
Mg441       O443   2.259       .  S
C442        O480   1.277       .  A
C442        O448   1.276       .  A
C442        C610   1.509       .  S
O443        C450   1.268       .  A
H444        C457   1.081       .  S
C445        O459   1.236       .  S
C445        O460   1.272       .  A
C445        H470   1.083       .  S
O446        C469   1.274       .  A
O447       Mg461   2.138       .  S
O448       Mg478   2.294       .  S
C449        O462   1.276       .  A
C449        O454   1.277       .  A
C449        C645   1.481       .  S
C450        O477   1.276       .  A
C450        C709   1.476       .  S
Mg451       O458   2.177       .  S
Mg451       O459   2.159       .  S
Mg451       O452   2.343       .  S
Mg451       O453   2.293       .  S
Mg451       O480   2.305       .  S
O453        C457   1.268       .  A
O454       Mg461   2.306       .  S
O455        C474   1.263       .  A
O456        C476   1.275       .  A
O456       Mg472   2.317       .  S
O458       Mg472   2.159       .  S
O458        C469   1.238       .  S
O459       Mg478   2.169       .  S
O460       Mg472   2.308       .  S
Mg461       O477   2.304       .  S
O462       Mg478   2.284       .  S
H463        C468   1.083       .  S
O464       Mg472   2.134       .  S
O464        C467   1.239       .  S
H465        C467   1.081       .  S
H466        C469   1.081       .  S
O471       Mg478   2.276       .  S
C474        O479   1.278       .  A
C474       C1061   1.465       .  S
O475        C476   1.271       .  A
C476        C661   1.481       .  S
O481       Mg483   2.125       .  S
O481       Mg489   2.129       .  S
O481        C516   1.238       .  S
C482        O495   1.235       .  S
C482        O519   1.267       .  A
C482        H521   1.081       .  S
Mg483       O512   2.158       .  S
Mg483       O527   2.348       .  S
Mg483       O523   2.241       .  S
Mg483       O494   2.317       .  S
O484       Mg526   2.155       .  S
O484       Mg509   2.138       .  S
O484        C505   1.236       .  S
O485        C516   1.272       .  A
O485       Mg509   2.298       .  S
C486        O488   1.272       .  A
C486        O500   1.281       .  A
C486        C677   1.508       .  S
O487        C515   1.275       .  A
O487       Mg489   2.312       .  S
O488       Mg520   2.277       .  S
Mg489       O495   2.092       .  S
Mg489       O503   2.201       .  S
Mg489       O491   2.252       .  S
C490        O528   1.279       .  A
C490        O496   1.272       .  A
C490        C626   1.499       .  S
O491        C498   1.268       .  A
H492        C505   1.081       .  S
C493        O507   1.236       .  S
C493        O508   1.271       .  A
C493        H518   1.084       .  S
O494        C517   1.273       .  A
O495       Mg509   2.144       .  S
O496       Mg526   2.285       .  S
C497        O510   1.276       .  A
C497        O502   1.279       .  A
C497        C581   1.479       .  S
C498        O525   1.278       .  A
C498        C770   1.494       .  S
Mg499       O506   2.170       .  S
Mg499       O507   2.161       .  S
Mg499       O500   2.333       .  S
Mg499       O501   2.287       .  S
Mg499       O528   2.306       .  S
O501        C505   1.269       .  A
O502       Mg509   2.319       .  S
O503        C522   1.262       .  A
O504        C524   1.279       .  A
O504       Mg520   2.335       .  S
O506       Mg520   2.153       .  S
O506        C517   1.236       .  S
O507       Mg526   2.166       .  S
O508       Mg520   2.307       .  S
Mg509       O525   2.327       .  S
O510       Mg526   2.281       .  S
H511        C516   1.084       .  S
O512       Mg520   2.156       .  S
O512        C515   1.240       .  S
H513        C515   1.081       .  S
H514        C517   1.081       .  S
O519       Mg526   2.277       .  S
C522        O527   1.277       .  A
C522        C933   1.479       .  S
O523        C524   1.269       .  A
C524        C597   1.479       .  S
O529       Mg531   2.125       .  S
O529       Mg537   2.131       .  S
O529        C564   1.241       .  S
C530        O567   1.265       .  A
C530        H569   1.078       .  S
C530        O543   1.262       .  A
Mg531       O560   2.147       .  S
Mg531       O575   2.374       .  S
Mg531       O571   2.260       .  S
Mg531       O542   2.333       .  S
O532       Mg574   2.160       .  S
O532       Mg557   2.132       .  S
O532        C553   1.234       .  S
O533        C564   1.275       .  A
O533       Mg557   2.305       .  S
C534        O536   1.272       .  A
C534        O548   1.277       .  A
C534        C613   1.505       .  S
O535        C563   1.274       .  A
O535       Mg537   2.312       .  S
O536       Mg568   2.256       .  S
Mg537       O551   2.183       .  S
Mg537       O539   2.272       .  S
Mg537       O543   2.149       .  S
C538        O576   1.279       .  A
C538        O544   1.272       .  A
C538        C690   1.487       .  S
O539        C546   1.270       .  A
H540        C553   1.081       .  S
C541        O555   1.236       .  S
C541        O556   1.271       .  A
C541        H566   1.084       .  S
O542        C565   1.276       .  A
O543       Mg557   2.199       .  S
O544       Mg574   2.281       .  S
C545        O558   1.275       .  A
C545        O550   1.280       .  A
C545        C594   1.484       .  S
C546        O573   1.278       .  A
C546        C821   1.493       .  S
Mg547       O554   2.187       .  S
Mg547       O555   2.156       .  S
Mg547       O548   2.339       .  S
Mg547       O549   2.289       .  S
Mg547       O576   2.314       .  S
O549        C553   1.268       .  A
O550       Mg557   2.325   1_554  S
O551        C570   1.261       .  A
O552        C572   1.275       .  A
O552       Mg568   2.327       .  S
O554       Mg568   2.156       .  S
O554        C565   1.238       .  S
O555       Mg574   2.158       .  S
O556       Mg568   2.304       .  S
Mg557       O573   2.315       .  S
O558       Mg574   2.257   1_554  S
H559        C564   1.084       .  S
O560       Mg568   2.158       .  S
O560        C563   1.239       .  S
H561        C563   1.080       .  S
H562        C565   1.081       .  S
O567       Mg574   2.280       .  S
C570        O575   1.281       .  A
C570        C898   1.471       .  S
O571        C572   1.272       .  A
C572        C578   1.486       .  S
C577        H584   1.083       .  S
C577        C578   1.405       .  A
C577        C582   1.407       .  A
C578        C579   1.421       .  A
C579        C580   1.410       .  A
C579        C586   1.520       .  S
C580        H585   1.083       .  S
C580        C581   1.403       .  A
C581        C582   1.415       .  A
C582        C583   1.519       .  S
C583        F587   1.385       .  S
C583        F588   1.384       .  S
C583        F589   1.382       .  S
C586        F590   1.382       .  S
C586        F591   1.384       .  S
C586        F592   1.385       .  S
C593        H600   1.083       .  S
C593        C594   1.406       .  A
C593        C598   1.405       .  A
C594        C595   1.418       .  A
C595        C596   1.409       .  A
C595        C602   1.518       .  S
C596        H601   1.083       .  S
C596        C597   1.405       .  A
C597        C598   1.414       .  A
C598        C599   1.518       .  S
C599        F603   1.384       .  S
C599        F604   1.384       .  S
C599        F605   1.379       .  S
C602        F606   1.382       .  S
C602        F607   1.383       .  S
C602        F608   1.384       .  S
C609        H616   1.082       .  S
C609        C610   1.414       .  A
C609        C614   1.412       .  A
C610        C611   1.424   1_545  A
C611        C612   1.411       .  A
C611        C618   1.522       .  S
C612        H617   1.081       .  S
C612        C613   1.411       .  A
C613        C614   1.422   1_565  A
C614        C615   1.522       .  S
C615        F619   1.385       .  S
C615        F620   1.383   1_545  S
C615        F621   1.383   1_545  S
C618        F622   1.383   1_565  S
C618        F623   1.383       .  S
C618        F624   1.385       .  S
C625        H632   1.082       .  S
C625        C626   1.405   1_545  A
C625        C630   1.408       .  A
C626        C627   1.428       .  A
C627        C628   1.411   1_565  A
C627        C634   1.521       .  S
C628        H633   1.083       .  S
C628        C629   1.402       .  A
C629        C630   1.426       .  A
C630        C631   1.525       .  S
C631        F635   1.384       .  S
C631        F636   1.384       .  S
C631        F637   1.383       .  S
C634        F638   1.383       .  S
C634        F639   1.384       .  S
C634        F640   1.385       .  S
C641        H648   1.083       .  S
C641        C642   1.405       .  A
C641        C646   1.407       .  A
C642        C643   1.423       .  A
C643        C644   1.410       .  A
C643        C650   1.520       .  S
C644        H649   1.083       .  S
C644        C645   1.402       .  A
C645        C646   1.417       .  A
C646        C647   1.520       .  S
C647        F651   1.384       .  S
C647        F652   1.384       .  S
C647        F653   1.382       .  S
C650        F654   1.382       .  S
C650        F655   1.383       .  S
C650        F656   1.385       .  S
C657        H664   1.083       .  S
C657        C658   1.404       .  A
C657        C662   1.409       .  A
C658        C659   1.421       .  A
C659        C660   1.408       .  A
C659        C666   1.520       .  S
C660        H665   1.083       .  S
C660        C661   1.401       .  A
C661        C662   1.418       .  A
C662        C663   1.519       .  S
C663        F667   1.385       .  S
C663        F668   1.384       .  S
C663        F669   1.382       .  S
C666        F670   1.382       .  S
C666        F671   1.384       .  S
C666        F672   1.384       .  S
C673        H680   1.082       .  S
C673        C674   1.405       .  A
C673        C678   1.410   1_545  A
C674        C675   1.428       .  A
C675        C676   1.410   1_545  A
C675        C682   1.524       .  S
C676        H681   1.082       .  S
C676        C677   1.408       .  A
C677        C678   1.427       .  A
C678        C679   1.518       .  S
C679        F683   1.385       .  S
C679        F684   1.382       .  S
C679        F685   1.384       .  S
C682        F686   1.383       .  S
C682        F687   1.384       .  S
C682        F688   1.384       .  S
C689        H696   1.083       .  S
C689        C690   1.404       .  A
C689        C694   1.413   1_565  A
C690        C691   1.424   1_556  A
C691        C692   1.404   1_565  A
C691        C698   1.524       .  S
C692        H697   1.082       .  S
C692        C693   1.404       .  A
C693        C694   1.422   1_554  A
C694        C695   1.517       .  S
C695        F699   1.385       .  S
C695        F700   1.382       .  S
C695        F701   1.384   1_556  S
C698        F702   1.383   1_554  S
C698        F703   1.383       .  S
C698        F704   1.385       .  S
C705        H712   1.083       .  S
C705        C706   1.407       .  A
C705        C710   1.406       .  A
C706        C707   1.419       .  A
C707        C708   1.409       .  A
C707        C714   1.519       .  S
C708        H713   1.083       .  S
C708        C709   1.403       .  A
C709        C710   1.416       .  A
C710        C711   1.520       .  S
C711        F715   1.385       .  S
C711        F716   1.383       .  S
C711        F717   1.382       .  S
C714        F718   1.383       .  S
C714        F719   1.383       .  S
C714        F720   1.385       .  S
C721        H728   1.082       .  S
C721        C722   1.413       .  A
C721        C726   1.406       .  A
C722        C723   1.421       .  A
C723        C724   1.409       .  A
C723        C730   1.520       .  S
C724        H729   1.083       .  S
C724        C725   1.406       .  A
C725        C726   1.411       .  A
C726        C727   1.518       .  S
C727        F731   1.382       .  S
C727        F732   1.383       .  S
C727        F733   1.384       .  S
C730        F734   1.384       .  S
C730        F735   1.383       .  S
C730        F736   1.385       .  S
C737        H744   1.083       .  S
C737        C738   1.407       .  A
C737        C742   1.407       .  A
C738        C739   1.420       .  A
C739        C740   1.409       .  A
C739        C746   1.520       .  S
C740        H745   1.083       .  S
C740        C741   1.404       .  A
C741        C742   1.418       .  A
C742        C743   1.520       .  S
C743        F747   1.384       .  S
C743        F748   1.383       .  S
C743        F749   1.383       .  S
C746        F750   1.382       .  S
C746        F751   1.384       .  S
C746        F752   1.384       .  S
C753        H760   1.082   1_554  S
C753        C754   1.408   1_554  A
C753        C758   1.409       .  A
C754        C755   1.421   1_556  A
C755        C756   1.407       .  A
C755        C762   1.518   1_554  S
C756        H761   1.083       .  S
C756        C757   1.404       .  A
C757        C758   1.419       .  A
C758        C759   1.519       .  S
C759        F763   1.385       .  S
C759        F764   1.383       .  S
C759        F765   1.382       .  S
C762        F766   1.378       .  S
C762        F767   1.384       .  S
C762        F768   1.385   1_556  S
C769        H776   1.083       .  S
C769        C770   1.411       .  A
C769        C774   1.409       .  A
C770        C771   1.415       .  A
C771        C772   1.412       .  A
C771        C778   1.518       .  S
C772        H777   1.083       .  S
C772        C773   1.414       .  A
C773        C774   1.416       .  A
C774        C775   1.519       .  S
C775        F779   1.385       .  S
C775        F780   1.383       .  S
C775        F781   1.383       .  S
C778        F782   1.383       .  S
C778        F783   1.383       .  S
C778        F784   1.385       .  S
C785        H792   1.082       .  S
C785        C786   1.416       .  A
C785        C790   1.414       .  A
C786        C787   1.424   1_455  A
C787        C788   1.408       .  A
C787        C794   1.522       .  S
C788        H793   1.082       .  S
C788        C789   1.410       .  A
C789        C790   1.417   1_655  A
C790        C791   1.518       .  S
C791        F795   1.384       .  S
C791        F796   1.384   1_455  S
C791        F797   1.382       .  S
C794        F798   1.384   1_655  S
C794        F799   1.383   1_655  S
C794        F800   1.385       .  S
C801        H808   1.081       .  S
C801        C802   1.406       .  A
C801        C806   1.406   1_655  A
C802        C803   1.423       .  A
C803        C804   1.413   1_655  A
C803        C810   1.518       .  S
C804        H809   1.083       .  S
C804        C805   1.406       .  A
C805        C806   1.426       .  A
C806        C807   1.524       .  S
C807        F811   1.385       .  S
C807        F812   1.383       .  S
C807        F813   1.383       .  S
C810        F814   1.382       .  S
C810        F815   1.384       .  S
C810        F816   1.385       .  S
C817        H824   1.083   1_556  S
C817        C818   1.411       .  A
C817        C822   1.409       .  A
C818        C819   1.416       .  A
C819        C820   1.412       .  A
C819        C826   1.519       .  S
C820        H825   1.083       .  S
C820        C821   1.412       .  A
C821        C822   1.415       .  A
C822        C823   1.518   1_556  S
C823        F827   1.384       .  S
C823        F828   1.382       .  S
C823        F829   1.384       .  S
C826        F830   1.383       .  S
C826        F831   1.384       .  S
C826        F832   1.384       .  S
C833        H840   1.082       .  S
C833        C834   1.406       .  A
C833        C838   1.406   1_455  A
C834        C835   1.424       .  A
C835        C836   1.413   1_455  A
C835        C842   1.517       .  S
C836        H841   1.083       .  S
C836        C837   1.402       .  A
C837        C838   1.422       .  A
C838        C839   1.524       .  S
C839        F843   1.384       .  S
C839        F844   1.384       .  S
C839        F845   1.383       .  S
C842        F846   1.382       .  S
C842        F847   1.384       .  S
C842        F848   1.385       .  S
C849        H856   1.083       .  S
C849        C850   1.406       .  A
C849        C854   1.409       .  A
C850        C851   1.420       .  A
C851        C852   1.405       .  A
C851        C858   1.521       .  S
C852        H857   1.082       .  S
C852        C853   1.406       .  A
C853        C854   1.424       .  A
C854        C855   1.522       .  S
C855        F859   1.385       .  S
C855        F860   1.383       .  S
C855        F861   1.384       .  S
C858        F862   1.384       .  S
C858        F863   1.382       .  S
C858        F864   1.385       .  S
C865        H872   1.083       .  S
C865        C866   1.407       .  A
C865        C870   1.408       .  A
C866        C867   1.422       .  A
C867        C868   1.406       .  A
C867        C874   1.521       .  S
C868        H873   1.083       .  S
C868        C869   1.402       .  A
C869        C870   1.416       .  A
C870        C871   1.520       .  S
C871        F875   1.385       .  S
C871        F876   1.384       .  S
C871        F877   1.382       .  S
C874        F878   1.382       .  S
C874        F879   1.383       .  S
C874        F880   1.385       .  S
C881        H888   1.078       .  S
C881        C882   1.405       .  A
C881        C886   1.405       .  A
C882        C883   1.417       .  A
C883        C884   1.411   1_655  A
C883        C890   1.517   1_655  S
C884        H889   1.083       .  S
C884        C885   1.411       .  A
C885        C886   1.425   1_455  A
C886        C887   1.525       .  S
C887        F891   1.385   1_556  S
C887        F892   1.383   1_656  S
C887        F893   1.384   1_656  S
C890        F894   1.384   1_455  S
C890        F895   1.382   1_455  S
C890        F896   1.385       .  S
C897        H904   1.083       .  S
C897        C898   1.401       .  A
C897        C902   1.409       .  A
C898        C899   1.412       .  A
C899        C900   1.408       .  A
C899        C906   1.518       .  S
C900        H905   1.083       .  S
C900        C901   1.409       .  A
C901        C902   1.423       .  A
C902        C903   1.520       .  S
C903        F907   1.385       .  S
C903        F908   1.383       .  S
C903        F909   1.383       .  S
C906        F910   1.383       .  S
C906        F911   1.383       .  S
C906        F912   1.384       .  S
C913        H920   1.083       .  S
C913        C914   1.404       .  A
C913        C918   1.406       .  A
C914        C915   1.408       .  A
C915        C916   1.402       .  A
C915        C922   1.520       .  S
C916        H921   1.083       .  S
C916        C917   1.413       .  A
C917        C918   1.419       .  A
C918        C919   1.520       .  S
C919        F923   1.385       .  S
C919        F924   1.383       .  S
C919        F925   1.383       .  S
C922        F926   1.383       .  S
C922        F927   1.384       .  S
C922        F928   1.384       .  S
C929        H936   1.083       .  S
C929        C930   1.403       .  A
C929        C934   1.409       .  A
C930        C931   1.410       .  A
C931        C932   1.405       .  A
C931        C938   1.517       .  S
C932        H937   1.084       .  S
C932        C933   1.408       .  A
C933        C934   1.416       .  A
C934        C935   1.518       .  S
C935        F939   1.384       .  S
C935        F940   1.383       .  S
C935        F941   1.383       .  S
C938        F942   1.383       .  S
C938        F943   1.383       .  S
C938        F944   1.385       .  S
C945        H952   1.084       .  S
C945        C946   1.405       .  A
C945        C950   1.408       .  A
C946        C947   1.410       .  A
C947        C948   1.404       .  A
C947        C954   1.519       .  S
C948        H953   1.083       .  S
C948        C949   1.409       .  A
C949        C950   1.420       .  A
C950        C951   1.520       .  S
C951        F955   1.385       .  S
C951        F956   1.384       .  S
C951        F957   1.382       .  S
C954        F958   1.383       .  S
C954        F959   1.384       .  S
C954        F960   1.384       .  S
C961        H968   1.083       .  S
C961        C962   1.402       .  A
C961        C966   1.408       .  A
C962        C963   1.418       .  A
C963        C964   1.407       .  A
C963        C970   1.520       .  S
C964        H969   1.083       .  S
C964        C965   1.406   1_556  A
C965        C966   1.421   1_554  A
C966        C967   1.519   1_556  S
C967        F971   1.385   1_554  S
C967        F972   1.382       .  S
C967        F973   1.384       .  S
C970        F974   1.383       .  S
C970        F975   1.383       .  S
C970        F976   1.385       .  S
C977        H984   1.083       .  S
C977        C978   1.408       .  A
C977        C982   1.410       .  A
C978        C979   1.422       .  A
C979        C980   1.408       .  A
C979        C986   1.520       .  S
C980        H985   1.083       .  S
C980        C981   1.405       .  A
C981        C982   1.420       .  A
C982        C983   1.521       .  S
C983        F987   1.385       .  S
C983        F988   1.383       .  S
C983        F989   1.383       .  S
C986        F990   1.381       .  S
C986        F991   1.383       .  S
C986        F992   1.385       .  S
C993       H1000   1.083       .  S
C993        C994   1.407       .  A
C993        C998   1.406       .  A
C994        C995   1.421       .  A
C995        C996   1.409       .  A
C995       C1002   1.519       .  S
C996       H1001   1.084       .  S
C996        C997   1.401       .  A
C997        C998   1.412       .  A
C998        C999   1.517       .  S
C999       F1003   1.384       .  S
C999       F1004   1.383       .  S
C999       F1005   1.382       .  S
C1002      F1006   1.383       .  S
C1002      F1007   1.382       .  S
C1002      F1008   1.385       .  S
C1009      H1016   1.083       .  S
C1009      C1010   1.411       .  A
C1009      C1014   1.408       .  A
C1010      C1011   1.419       .  A
C1011      C1012   1.406       .  A
C1011      C1018   1.515       .  S
C1012      H1017   1.083       .  S
C1012      C1013   1.403       .  A
C1013      C1014   1.411       .  A
C1014      C1015   1.517       .  S
C1015      F1019   1.385       .  S
C1015      F1020   1.382       .  S
C1015      F1021   1.384       .  S
C1018      F1022   1.383       .  S
C1018      F1023   1.379       .  S
C1018      F1024   1.385       .  S
C1025      H1032   1.083       .  S
C1025      C1026   1.404       .  A
C1025      C1030   1.413       .  A
C1026      C1027   1.429       .  A
C1027      C1028   1.409       .  A
C1027      C1034   1.522       .  S
C1028      H1033   1.081       .  S
C1028      C1029   1.403       .  A
C1029      C1030   1.428       .  A
C1030      C1031   1.521       .  S
C1031      F1035   1.385       .  S
C1031      F1036   1.382       .  S
C1031      F1037   1.384       .  S
C1034      F1038   1.382       .  S
C1034      F1039   1.383       .  S
C1034      F1040   1.385       .  S
C1041      H1048   1.083       .  S
C1041      C1042   1.402       .  A
C1041      C1046   1.413       .  A
C1042      C1043   1.420       .  A
C1043      C1044   1.401       .  A
C1043      C1050   1.524       .  S
C1044      H1049   1.083       .  S
C1044      C1045   1.402       .  A
C1045      C1046   1.423       .  A
C1046      C1047   1.518       .  S
C1047      F1051   1.385       .  S
C1047      F1052   1.383       .  S
C1047      F1053   1.383       .  S
C1050      F1054   1.384       .  S
C1050      F1055   1.380       .  S
C1050      F1056   1.385       .  S
C1057      H1064   1.083       .  S
C1057      C1058   1.410       .  A
C1057      C1062   1.405       .  A
C1058      C1059   1.423       .  A
C1059      C1060   1.406       .  A
C1059      C1066   1.521       .  S
C1060      H1065   1.084       .  S
C1060      C1061   1.400       .  A
C1061      C1062   1.408       .  A
C1062      C1063   1.516       .  S
C1063      F1067   1.384       .  S
C1063      F1068   1.383       .  S
C1063      F1069   1.383       .  S
C1066      F1070   1.383       .  S
C1066      F1071   1.383       .  S
C1066      F1072   1.385       .  S
C1073      H1080   1.083       .  S
C1073      C1074   1.402       .  A
C1073      C1078   1.405       .  A
C1074      C1075   1.410       .  A
C1075      C1076   1.407       .  A
C1075      C1082   1.518       .  S
C1076      H1081   1.083       .  S
C1076      C1077   1.411       .  A
C1077      C1078   1.419       .  A
C1078      C1079   1.518       .  S
C1079      F1083   1.385       .  S
C1079      F1084   1.383       .  S
C1079      F1085   1.378       .  S
C1082      F1086   1.383       .  S
C1082      F1087   1.383       .  S
C1082      F1088   1.384       .  S
C1089      H1096   1.083       .  S
C1089      C1090   1.404       .  A
C1089      C1094   1.407       .  A
C1090      C1091   1.417       .  A
C1091      C1092   1.409       .  A
C1091      C1098   1.519       .  S
C1092      H1097   1.081       .  S
C1092      C1093   1.407       .  A
C1093      C1094   1.421       .  A
C1094      C1095   1.516       .  S
C1095      F1099   1.385       .  S
C1095      F1100   1.383       .  S
C1095      F1101   1.382       .  S
C1098      F1102   1.384       .  S
C1098      F1103   1.382       .  S
C1098      F1104   1.385       .  S
C1105      H1112   1.083       .  S
C1105      C1106   1.405       .  A
C1105      C1110   1.410       .  A
C1106      C1107   1.423       .  A
C1107      C1108   1.411       .  A
C1107      C1114   1.517       .  S
C1108      H1113   1.083       .  S
C1108      C1109   1.403       .  A
C1109      C1110   1.419       .  A
C1110      C1111   1.518       .  S
C1111      F1115   1.385       .  S
C1111      F1116   1.383       .  S
C1111      F1117   1.380       .  S
C1114      F1118   1.382       .  S
C1114      F1119   1.384       .  S
C1114      F1120   1.385       .  S
C1121      H1128   1.083       .  S
C1121      C1122   1.411       .  A
C1121      C1126   1.415       .  A
C1122      C1123   1.423       .  A
C1123      C1124   1.406       .  A
C1123      C1130   1.522       .  S
C1124      H1129   1.084       .  S
C1124      C1125   1.401       .  A
C1125      C1126   1.415       .  A
C1126      C1127   1.517       .  S
C1127      F1131   1.384       .  S
C1127      F1132   1.383       .  S
C1127      F1133   1.381       .  S
C1130      F1134   1.382       .  S
C1130      F1135   1.384       .  S
C1130      F1136   1.385       .  S
C1137      H1144   1.082       .  S
C1137      C1138   1.412       .  A
C1137      C1142   1.408       .  A
C1138      C1139   1.425       .  A
C1139      C1140   1.411       .  A
C1139      C1146   1.522       .  S
C1140      H1145   1.080       .  S
C1140      C1141   1.409       .  A
C1141      C1142   1.417       .  A
C1142      C1143   1.518       .  S
C1143      F1147   1.385       .  S
C1143      F1148   1.384       .  S
C1143      F1149   1.382       .  S
C1146      F1150   1.384       .  S
C1146      F1151   1.382       .  S
C1146      F1152   1.385       .  S
