geometry optimzed in LAMMPS
_audit_creation_date              2020-12-01 
_audit_creation_method            'lammps2cif' 
_symmetry_space_group_name_H-M    'P1' 
_symmetry_Int_Tables_number       1 
_symmetry_cell_setting            triclinic 
loop_ 
_symmetry_equiv_pos_as_xyz 
  x,y,z 
_cell_length_a                    34.03473204 
_cell_length_b                    28.68078274512028 
_cell_length_c                    34.81835150356376 
_cell_angle_alpha                 84.55938257745446 
_cell_angle_beta                  107.6319213533529 
_cell_angle_gamma                 94.54138919319381 
loop_ 
_atom_site_label 
_atom_site_type_symbol 
_atom_site_fract_x 
_atom_site_fract_y 
_atom_site_fract_z 
_atom_site_charge 
O1          O  0.97914087  0.96256068  0.40709997    -0.81000
O2          O  0.97498669  0.97210574  0.57751806    -0.65700
O3          O  0.97367761  0.01187553  0.46973200    -1.12300
C4          C  0.11588371  0.01929541  0.52201780     1.05900
O5          O  0.01952749  0.03079306  0.60022483    -0.78900
O6          O  0.04491559  0.08874908  0.54481888    -0.66500
Ni7        Ni  0.93615743  0.98335130  0.42517006     1.34900
C8          C  0.04684006  0.10159030  0.50949491     0.84600
O9          O  0.91367311  0.99223493  0.50936120    -0.79500
O10         O  0.89131405  0.00191235  0.44118589    -0.89700
C11         C  0.99495662  0.99698329  0.60612183     0.84200
O12         O  0.92962469  0.92228430  0.44983286    -0.67900
O13         O  0.10797383  0.03266401  0.55269138    -0.87200
C14         C  0.94361884  0.90254186  0.48505996     0.85000
C15         C  0.88523770  0.99763936  0.47577488     1.06600
H16         H  0.03946810  0.95881366  0.54224954     0.38400
O17         O  0.03057874  0.99035025  0.53399404    -1.09900
O18         O  0.04227352  0.07249164  0.48285860    -0.66500
Ni19       Ni  0.03122207  0.00551600  0.47963579     1.26300
O20         O  0.96677855  0.92456207  0.51445238    -0.66800
O21         O  0.08906378  0.99977778  0.49313442    -0.79000
C22         C  0.00518237  0.99138051  0.39720098     0.84400
O23         O  0.02849095  0.01731723  0.42350074    -0.66200
Ni24       Ni  0.06208133  0.03031122  0.57413647     1.27400
Ni25       Ni  0.97239891  0.99087325  0.52271486     1.26100
H26         H  0.96840208  0.04486296  0.46587340     0.38900
O27         O  0.45454200  0.98646921  0.39929190    -0.81000
O28         O  0.47524755  0.99350247  0.57980917    -0.65700
O29         O  0.47190312  0.03189999  0.47131781    -1.12300
C30         C  0.60511226  0.98157035  0.50832039     1.05900
O31         O  0.53843545  0.02462874  0.60542574    -0.78900
O32         O  0.56757082  0.07476466  0.54896298    -0.66500
Ni33       Ni  0.42449699  0.01701295  0.42752505     1.34900
C34         C  0.56527496  0.09008390  0.51297730     0.84600
O35         O  0.42032533  0.03820948  0.51884501    -0.79500
O36         O  0.39093224  0.04708822  0.45164606    -0.89700
C37         C  0.50461926  0.00628340  0.60978794     0.84200
O38         O  0.40864350  0.95673829  0.44835179    -0.67900
O39         O  0.60756445  0.99773298  0.54189615    -0.87200
C40         C  0.41990270  0.93408201  0.48264129     0.85000
C41         C  0.39115232  0.05119024  0.48783637     1.06600
H42         H  0.52187318  0.95403199  0.53391454     0.38400
O43         O  0.52359413  0.98780081  0.52964472    -1.09900
O44         O  0.55153961  0.06467653  0.48324585    -0.66500
Ni45       Ni  0.52176825  0.00442270  0.47476849     1.26300
O46         O  0.44546114  0.95154213  0.51329090    -0.66800
O47         O  0.57157763  0.97617529  0.48022130    -0.79000
C48         C  0.48704836  0.00377307  0.39160836     0.84400
O49         O  0.51687986  0.02018254  0.41926751    -0.66200
Ni50       Ni  0.57011695  0.01097870  0.57074080     1.27400
Ni51       Ni  0.47203098  0.01252156  0.52508906     1.26100
H52         H  0.47615306  0.06564754  0.46956254     0.38900
O53         O  0.22070426  0.48241221  0.40141821    -0.81000
O54         O  0.21395182  0.49045025  0.57488217    -0.65700
O55         O  0.22290623  0.52955788  0.46949448    -1.12300
C56         C  0.36126166  0.49591263  0.52903809     1.05900
O57         O  0.26783070  0.53728180  0.60156921    -0.78900
O58         O  0.30891020  0.58515308  0.55397238    -0.66500
Ni59       Ni  0.18225366  0.51051372  0.42204092     1.34900
C60         C  0.30912891  0.59976334  0.51847978     0.84600
O61         O  0.16012860  0.52498068  0.50649309    -0.79500
O62         O  0.14056252  0.53684899  0.43858949    -0.89700
C63         C  0.23776383  0.50992753  0.60537874     0.84200
O64         O  0.16685840  0.44983515  0.44228033    -0.67900
O65         O  0.35588836  0.51004479  0.56068644    -0.88000
C66         C  0.17579611  0.42752939  0.47682216     0.85000
C67         C  0.13337248  0.53471126  0.47264431     1.06600
H68         H  0.27414337  0.46053064  0.53985501     0.38400
O69         O  0.27229577  0.49405062  0.53406040    -1.09900
O70         O  0.29961609  0.57321853  0.48936140    -0.66500
Ni71       Ni  0.27761478  0.50941757  0.48129929     1.26300
O72         O  0.19863635  0.44563919  0.50863353    -0.66800
O73         O  0.33224228  0.48920129  0.49657799    -0.79000
C74         C  0.25431478  0.50162232  0.39730565     0.84400
O75         O  0.27968631  0.52200999  0.42644923    -0.66200
Ni76       Ni  0.31008781  0.52288013  0.57872774     1.27400
Ni77       Ni  0.21639076  0.50948217  0.52117108     1.26100
H78         H  0.22386373  0.56343545  0.46729703     0.38900
O79         O  0.70865983  0.50749552  0.39752093    -0.81000
O80         O  0.72979212  0.47734639  0.58762235    -0.65700
O81         O  0.72814187  0.52043249  0.48008137    -1.12300
C82         C  0.86032252  0.46888652  0.51600081     1.05900
O83         O  0.79437588  0.50295463  0.61640927    -0.78900
O84         O  0.82066418  0.55824508  0.56002359    -0.66500
Ni85       Ni  0.67977981  0.50304054  0.43751718     1.34900
C86         C  0.82085779  0.57434555  0.52481977     0.84600
O87         O  0.67728151  0.52557785  0.52908077    -0.79500
O88         O  0.64308052  0.49841483  0.47015222    -0.89700
C89         C  0.75881667  0.48798964  0.61865517     0.84200
O90         O  0.68966259  0.43810052  0.45106236    -0.67900
O91         O  0.86319275  0.48559550  0.54945604    -0.87200
C92         C  0.69068370  0.41694119  0.48526629     0.85000
C93         C  0.64409932  0.51149442  0.50423713     1.06600
H94         H  0.77603529  0.43872299  0.54221229     0.38400
O95         O  0.77849834  0.47252802  0.53831546    -1.09900
O96         O  0.80904375  0.54913719  0.49461630    -0.66500
Ni97       Ni  0.77753135  0.48960651  0.48408144     1.26300
O98         O  0.70021490  0.43824954  0.51786459    -0.66800
O99         O  0.82614804  0.45846691  0.49049738    -0.79000
C100        C  0.74591909  0.50859553  0.39720206     0.84400
O101        O  0.77599504  0.50442428  0.42911268    -0.66200
Ni102      Ni  0.82560577  0.49396524  0.57989613     1.27400
Ni103      Ni  0.72789026  0.49874497  0.53376890     1.26100
H104        H  0.73270220  0.55415910  0.47831451     0.38900
O105        O  0.95075590  0.97808262  0.89758046    -0.81000
O106        O  0.98363726  0.00746849  0.07857617    -0.65700
O107        O  0.99487421  0.01214846  0.97233355    -1.12300
C108        C  0.04706707  0.86146891  0.01661251     1.05900
O109        O  0.04707096  0.98518729  0.10416229    -0.78900
O110        O  0.09321225  0.96353306  0.05825234    -0.66500
Ni111      Ni  0.95079764  0.03254019  0.92626000     1.34900
C112        C  0.09795832  0.97158061  0.02342351     0.84600
O113        O  0.97165177  0.07403767  0.01786263    -0.79500
O114        O  0.94710239  0.08912591  0.95050542    -0.89700
C115        C  0.01449631  0.99894235  0.10907992     0.84200
O116        O  0.90488921  0.00475741  0.94265495    -0.67900
O117        O  0.05632727  0.87648341  0.05180736    -0.87200
C118        C  0.90051794  0.99120376  0.97698899     0.85000
C119        C  0.95421063  0.10035653  0.98672272     1.06600
H120        H  0.98136751  0.92686005  0.03120454     0.38400
O121        O  0.00443415  0.94823660  0.02994441    -1.09900
O122        O  0.06814969  0.96841701  0.99107291    -0.66500
Ni123      Ni  0.01034269  0.94846299  0.97717781     1.26300
O124        O  0.93071770  0.98960611  0.00927920    -0.66800
O125        O  0.02626985  0.88453514  0.98459708    -0.79000
C126        C  0.98273547  0.96259344  0.89263566     0.84400
O127        O  0.01314158  0.95166511  0.92294666    -0.66200
Ni128      Ni  0.04970300  0.93164520  0.07573614     1.27400
Ni129      Ni  0.98799637  0.01109975  0.02473991     1.26100
H130        H  0.01867688  0.03280975  0.97216092     0.38900
O131        O  0.53651795  0.95731879  0.10914644    -0.81000
O132        O  0.51346557  0.96025585  0.92366730    -0.65700
O133        O  0.53287308  0.99477443  0.03093824    -1.12300
C134        C  0.38589830  0.96575341  0.99916826     1.05900
O135        O  0.45953760  0.00419502  0.90212824    -0.78900
O136        O  0.42104341  0.04284274  0.94791752    -0.66500
Ni137      Ni  0.57254144  0.96492160  0.07520140     1.34900
C138        C  0.44009056  0.06688110  0.97742882     0.84600
O139        O  0.58216580  0.99047267  0.98017457    -0.79500
O140        O  0.61280749  0.97052099  0.04598865    -0.89700
C141        C  0.48698928  0.98170400  0.89501027     0.84200
O142        O  0.55850812  0.90186641  0.06078916    -0.67900
O143        O  0.38607600  0.95839404  0.96362557    -0.87200
C144        C  0.55229565  0.88606896  0.02646743     0.85000
C145        C  0.61418151  0.98106402  0.00990345     1.06600
H146        H  0.46574475  0.92755895  0.98328598     0.38400
O147        O  0.46956872  0.96122194  0.97938262    -1.09900
O148        O  0.46711229  0.04969393  0.00845230    -0.66500
Ni149      Ni  0.47631165  0.98557355  0.02985756     1.26300
O150        O  0.53931604  0.91136588  0.99353893    -0.66800
O151        O  0.41862090  0.97685273  0.02717565    -0.79000
C152        C  0.51035122  0.98475895  0.11268235     0.84400
O153        O  0.48735033  0.00738835  0.08215274    -0.66200
Ni154      Ni  0.42456888  0.98050059  0.93458101     1.27400
Ni155      Ni  0.52523043  0.97595123  0.97820368     1.26100
H156        H  0.54056742  0.02793932  0.03081494     0.38900
O157        O  0.19970564  0.46705030  0.90427881    -0.81000
O158        O  0.24308036  0.48922874  0.08645690    -0.65700
O159        O  0.24553421  0.50298521  0.97733513    -1.12300
C160        C  0.30566879  0.35394134  0.01060666     1.05900
O161        O  0.30778131  0.46808634  0.10731840    -0.78900
O162        O  0.35289346  0.44713659  0.05672614    -0.66500
Ni163      Ni  0.19822753  0.52039513  0.93386667     1.34900
C164        C  0.35650792  0.46135554  0.02205972     0.84600
O165        O  0.22117319  0.55865465  0.02700567    -0.79500
O166        O  0.19467648  0.57551203  0.95963561    -0.89700
C167        C  0.27618580  0.48159046  0.11493621     0.84200
O168        O  0.15355456  0.49147837  0.95312195    -0.67900
O169        O  0.31282527  0.36254211  0.04757199    -0.87200
C170        C  0.15096913  0.47863160  0.98843160     0.85000
C171        C  0.20180919  0.58496839  0.99634032     1.06600
H172        H  0.23965410  0.41287492  0.03205841     0.38400
O173        O  0.26187522  0.43595611  0.03181235    -1.09900
O174        O  0.32459741  0.46661125  0.99102328    -0.66500
Ni175      Ni  0.26639815  0.44244121  0.97827943     1.26300
O176        O  0.18341197  0.47360601  0.01890525    -0.66800
O177        O  0.28638473  0.38117059  0.98081177    -0.79000
C178        C  0.23195277  0.45867271  0.89517747     0.84400
O179        O  0.26540933  0.45141871  0.92308290    -0.66200
Ni180      Ni  0.30859939  0.41648715  0.07509842     1.27400
Ni181      Ni  0.24152556  0.49707135  0.03083875     1.26100
H182        H  0.26735113  0.52643090  0.97655257     0.38900
O183        O  0.70243764  0.48245886  0.90789128    -0.81000
O184        O  0.74238385  0.51522177  0.08825907    -0.65700
O185        O  0.74528111  0.52289264  0.97977202    -1.12300
C186        C  0.80980469  0.37704824  0.02398066     1.05900
O187        O  0.80840766  0.50048962  0.10969406    -0.78900
O188        O  0.85543285  0.47187955  0.06284081    -0.66500
Ni189      Ni  0.69608871  0.53490271  0.93624358     1.34900
C190        C  0.85883381  0.48359471  0.02765027     0.84600
O191        O  0.71916249  0.58064589  0.02704805    -0.79500
O192        O  0.68594023  0.58915013  0.96037685    -0.89700
C193        C  0.77558762  0.51045497  0.11697040     0.84200
O194        O  0.65474949  0.49909734  0.95592550    -0.67900
O195        O  0.81533936  0.38834618  0.05995130    -0.87200
C196        C  0.65226865  0.49006385  0.99164783     0.85000
C197        C  0.69529604  0.60254612  0.99623222     1.06600
H198        H  0.74244801  0.43621945  0.03910392     0.38400
O199        O  0.76392122  0.45993640  0.03783066    -1.09900
O200        O  0.82665218  0.48908161  0.99684552    -0.66500
Ni201      Ni  0.76897906  0.46279431  0.98486227     1.26300
O202        O  0.68416032  0.49362604  0.02263569    -0.66800
O203        O  0.79124346  0.40195533  0.99210402    -0.79000
C204        C  0.73546896  0.47251787  0.90107325     0.84400
O205        O  0.76869460  0.46755931  0.92982141    -0.66200
Ni206      Ni  0.81070626  0.44512064  0.08272249     1.27400
Ni207      Ni  0.74131225  0.52007473  0.03327981     1.26100
H208        H  0.76591069  0.54723340  0.97737058     0.38900
C209        C  0.47497036  0.45519976  0.04447526    -0.27700
C210        C  0.48258333  0.47308883  0.00816377     0.01900
C211        C  0.44794118  0.48892807  0.97636746     0.29900
C212        C  0.40766978  0.48627027  0.98120696    -0.19500
C213        C  0.40026469  0.46878619  0.01792116    -0.28900
C214        C  0.43523068  0.45339773  0.04968041     0.44000
C215        C  0.52653619  0.47506993  0.00445832     0.05200
O216        O  0.45294188  0.50749687  0.94028916    -0.57500
H217        H  0.38205930  0.49782428  0.95585490     0.18100
O218        O  0.43098292  0.43431823  0.08592068    -0.64200
H219        H  0.50009948  0.44151804  0.06927067     0.16600
C220        C  0.56126524  0.49079748  0.03576750     0.28800
C221        C  0.60174803  0.49230612  0.03221058    -0.25100
C222        C  0.60965551  0.47930002  0.99729540    -0.24300
C223        C  0.57512999  0.46279269  0.96618753     0.40300
C224        C  0.53458345  0.46063367  0.96997441    -0.26800
O225        O  0.55603435  0.50670200  0.06971262    -0.58700
H226        H  0.62697903  0.50611961  0.05637330     0.15900
O227        O  0.58039485  0.44914162  0.93145443    -0.60100
H228        H  0.50925399  0.44739457  0.94563358     0.14300
H229        H  0.43810965  0.46050573  0.10390935     0.46200
H230        H  0.55040165  0.54033448  0.06263168     0.41600
H231        H  0.58815025  0.41605949  0.93786353     0.45000
H232        H  0.45811474  0.54168646  0.94318317     0.36500
C233        C  0.97575394  0.46633385  0.04724388    -0.27700
C234        C  0.98357772  0.48288019  0.01062410     0.01900
C235        C  0.94955973  0.50217532  0.97982596     0.29900
C236        C  0.90997556  0.50363197  0.98576333    -0.19500
C237        C  0.90246010  0.48727448  0.02265502    -0.28900
C238        C  0.93672139  0.46872844  0.05353008     0.44000
C239        C  0.02678162  0.47950096  0.00532206     0.05200
O240        O  0.95430408  0.52001377  0.94346579    -0.57500
H241        H  0.88488103  0.51750610  0.96102867     0.18100
O242        O  0.93250346  0.45150078  0.09026615    -0.64200
H243        H  0.99986664  0.44990485  0.07138583     0.16600
C244        C  0.06390411  0.48713146  0.03719425     0.28800
C245        C  0.10331283  0.48336956  0.03196093    -0.25100
C246        C  0.10814833  0.47348312  0.99474986    -0.24300
C247        C  0.07127479  0.46584788  0.96283567     0.40300
C248        C  0.03173055  0.46815219  0.96838685    -0.26800
O249        O  0.06247265  0.50034655  0.07353843    -0.58700
H250        H  0.13049706  0.49081655  0.05692224     0.15900
O251        O  0.07328228  0.45669616  0.92555764    -0.60100
H252        H  0.00472385  0.46079533  0.94329758     0.14300
H253        H  0.92902357  0.41697562  0.08897889     0.46200
H254        H  0.06161371  0.53501045  0.07010462     0.41600
H255        H  0.07413106  0.42211538  0.92654579     0.45000
H256        H  0.96839480  0.55141966  0.94857929     0.36500
C257        C  0.37894418  0.17700018  0.94779844    -0.27700
C258        C  0.39234080  0.19968438  0.98383171     0.01900
C259        C  0.42603809  0.18229965  0.01525736     0.29900
C260        C  0.44324981  0.14066867  0.01178295    -0.19500
C261        C  0.42778782  0.11581523  0.97687632    -0.28900
C262        C  0.39657115  0.13586582  0.94391686     0.44000
C263        C  0.36891396  0.23887411  0.98956985     0.05200
O264        O  0.44142602  0.20484747  0.05017802    -0.57500
H265        H  0.46755910  0.12681069  0.03734189     0.18100
O266        O  0.38116364  0.11430083  0.90848249    -0.64200
H267        H  0.35327498  0.18990231  0.92314408     0.16600
C268        C  0.35921653  0.27761156  0.96091299     0.28800
C269        C  0.33651855  0.31346956  0.96705072    -0.25100
C270        C  0.32356324  0.31194027  0.00192804    -0.24300
C271        C  0.33241097  0.27255780  0.03003411     0.40300
C272        C  0.35473813  0.23656469  0.02368049    -0.26800
O273        O  0.37272062  0.28144169  0.92735552    -0.58700
H274        H  0.33065384  0.34360902  0.94524810     0.15900
O275        O  0.31973119  0.26895844  0.06406588    -0.60100
H276        H  0.36089616  0.20650286  0.04553593     0.14300
H277        H  0.40017064  0.12508753  0.89238169     0.46200
H278        H  0.40006509  0.29861247  0.93563402     0.41600
H279        H  0.29068896  0.25630141  0.05522851     0.45000
H280        H  0.46362647  0.22707949  0.04546389     0.36500
C281        C  0.57465529  0.77549673  0.98605128    -0.27700
C282        C  0.60577466  0.75694596  0.01937654     0.01900
C283        C  0.61528916  0.77821349  0.05626230     0.29900
C284        C  0.59477657  0.81783074  0.05887802    -0.19500
C285        C  0.56525062  0.83796739  0.02494211    -0.28900
C286        C  0.55467760  0.81557614  0.98848108     0.44000
C287        C  0.62962940  0.71752133  0.01428058     0.05200
O288        O  0.64739572  0.76352137  0.08874844    -0.57500
H289        H  0.60436533  0.83475462  0.08702352     0.18100
O290        O  0.52637659  0.83377462  0.95435653    -0.64200
H291        H  0.56655143  0.75955685  0.95749529     0.16600
C292        C  0.63703290  0.67759031  0.04197646     0.28800
C293        C  0.66025102  0.64181075  0.03664075    -0.25100
C294        C  0.67503761  0.64374642  0.00291348    -0.24300
C295        C  0.66669714  0.68287639  0.97459479     0.40300
C296        C  0.64468817  0.71950015  0.98064772    -0.26800
O297        O  0.62046330  0.67215270  0.07355767    -0.58700
H298        H  0.66507507  0.61127338  0.05806257     0.15900
O299        O  0.67968917  0.68557920  0.94077679    -0.60100
H300        H  0.63932161  0.74963644  0.95883595     0.14300
H301        H  0.49916034  0.82067978  0.95635922     0.46200
H302        H  0.59122323  0.66141313  0.06157634     0.41600
H303        H  0.70618968  0.70454880  0.94783471     0.45000
H304        H  0.63481002  0.75213474  0.11038483     0.36500
C305        C  0.78301971  0.97663483  0.95019860    -0.27700
C306        C  0.77704316  0.97729179  0.98834405     0.01900
C307        C  0.81205376  0.97718998  0.02282400     0.29900
C308        C  0.85179200  0.97841475  0.01868758    -0.19500
C309        C  0.85798149  0.98045016  0.98037102    -0.28900
C310        C  0.82285942  0.97817004  0.94599178     0.44000
C311        C  0.73446166  0.97791573  0.99210217     0.05200
O312        O  0.80797979  0.97761625  0.06079774    -0.57500
H313        H  0.87791895  0.98011150  0.04572449     0.18100
O314        O  0.82689628  0.97870310  0.90794262    -0.64200
H315        H  0.75664131  0.97515105  0.92339673     0.16600
C316        C  0.70571819  0.01015933  0.96846034     0.28800
C317        C  0.66635485  0.01070228  0.97382119    -0.25100
C318        C  0.65517153  0.97984354  0.00301734    -0.24300
C319        C  0.68380218  0.94719079  0.02613064     0.40300
C320        C  0.72259221  0.94616141  0.02025800    -0.26800
O321        O  0.71654536  0.04284451  0.94153081    -0.58700
H322        H  0.64496965  0.03608865  0.95582776     0.15900
O323        O  0.67360052  0.91469606  0.05358716    -0.60100
H324        H  0.74354887  0.92016994  0.03790485     0.14300
H325        H  0.82979243  0.94549085  0.90401443     0.46200
H326        H  0.70136078  0.03231105  0.91441167     0.41600
H327        H  0.68684578  0.92725347  0.08033753     0.45000
H328        H  0.80626365  0.01112614  0.06465963     0.36500
C329        C  0.18976361  0.98874257  0.98134563    -0.27700
C330        C  0.22231248  0.97630310  0.01590209     0.01900
C331        C  0.21426611  0.96805750  0.05335306     0.29900
C332        C  0.17415848  0.97041934  0.05565465    -0.19500
C333        C  0.14091989  0.98027139  0.02082887    -0.28900
C334        C  0.14944172  0.99098606  0.98356253     0.44000
C335        C  0.26447612  0.97156650  0.01278618     0.05200
O336        O  0.24512502  0.95562035  0.08775750    -0.57500
H337        H  0.16888619  0.96186369  0.08472939     0.18100
O338        O  0.11854286  0.00215582  0.94884245    -0.64200
H339        H  0.19556110  0.99629117  0.95240352     0.16600
C340        C  0.27136662  0.94153425  0.98597503     0.28800
C341        C  0.31133519  0.93819796  0.98320929    -0.25100
C342        C  0.34516204  0.96439522  0.00701918    -0.24300
C343        C  0.33822526  0.99372163  0.03449169     0.40300
C344        C  0.29828340  0.99700029  0.03718801    -0.26800
O345        O  0.23940283  0.91427436  0.96322414    -0.58700
H346        H  0.31576253  0.91542756  0.96191868     0.15900
O347        O  0.36990159  0.02084649  0.05777850    -0.60100
H348        H  0.29354030  0.02045516  0.05782639     0.14300
H349        H  0.11621509  0.03647010  0.94834267     0.46200
H350        H  0.23272790  0.92953486  0.93540330     0.41600
H351        H  0.37080792  0.05070299  0.04108758     0.45000
H352        H  0.24485538  0.92090466  0.08907018     0.36500
C353        C  0.90781093  0.21961876  0.96898104    -0.27700
C354        C  0.89658569  0.22082745  0.00445235     0.01900
C355        C  0.90706408  0.18417807  0.03488785     0.29900
C356        C  0.92776352  0.14650383  0.02929468    -0.19500
C357        C  0.93826393  0.14440037  0.99345015    -0.28900
C358        C  0.92871362  0.18186959  0.96338972     0.44000
C359        C  0.87375443  0.26029611  0.00954626     0.05200
O360        O  0.89470207  0.18342366  0.06900584    -0.57500
H361        H  0.93387449  0.11777278  0.05249750     0.18100
O362        O  0.93899538  0.18167472  0.92825079    -0.64200
H363        H  0.90021520  0.24798760  0.94554504     0.16600
C364        C  0.89016933  0.28818177  0.04239186     0.28800
C365        C  0.86779723  0.32448655  0.04755732    -0.25100
C366        C  0.82942853  0.33469014  0.01960314    -0.24300
C367        C  0.81306301  0.30702101  0.98649733     0.40300
C368        C  0.83522603  0.26997913  0.98170354    -0.26800
O369        O  0.92850553  0.28090619  0.06912154    -0.58700
H370        H  0.88135365  0.34594995  0.07274907     0.15900
O371        O  0.77565355  0.31589095  0.95868713    -0.60100
H372        H  0.82229937  0.24862368  0.95632504     0.14300
H373        H  0.96761494  0.19566896  0.93445759     0.46200
H374        H  0.94830064  0.29738911  0.05594046     0.41600
H375        H  0.75469439  0.30283350  0.97188312     0.45000
H376        H  0.92042129  0.18785188  0.09155947     0.36500
C377        C  0.15595157  0.70378172  0.98038953    -0.27700
C378        C  0.13160865  0.69786788  0.00678504     0.01900
C379        C  0.13277936  0.65585225  0.03147409     0.29900
C380        C  0.15835315  0.62066891  0.02975150    -0.19500
C381        C  0.18244211  0.62635930  0.00311950    -0.28900
C382        C  0.18112956  0.66833186  0.97832076     0.44000
C383        C  0.10669498  0.73672570  0.00966568     0.05200
O384        O  0.10697080  0.64779254  0.05529205    -0.57500
H385        H  0.15759099  0.58777252  0.04769782     0.18100
O386        O  0.20370693  0.67459475  0.95143452    -0.64200
H387        H  0.15548017  0.73605765  0.96139617     0.16600
C388        C  0.11462640  0.75748800  0.04634931     0.28800
C389        C  0.09349480  0.79655728  0.04820258    -0.25100
C390        C  0.06415527  0.81614461  0.01374613    -0.24300
C391        C  0.05531823  0.79431725  0.97713527     0.40300
C392        C  0.07672287  0.75507520  0.97530039    -0.26800
O393        O  0.14538578  0.74206842  0.07980017    -0.58700
H394        H  0.10163505  0.81260542  0.07670233     0.15900
O395        O  0.02701905  0.81178378  0.94268190    -0.60100
H396        H  0.07037910  0.73931122  0.94682369     0.14300
H397        H  0.22915076  0.69293870  0.96535217     0.46200
H398        H  0.13120292  0.72873655  0.09972332     0.41600
H399        H  0.00001034  0.79711494  0.94393582     0.45000
H400        H  0.12528723  0.64440050  0.08350651     0.36500
C401        C  0.70900316  0.46107630  0.70355227    -0.27700
C402        C  0.74203735  0.47255280  0.73735519     0.01900
C403        C  0.77966687  0.49065635  0.73169989     0.29900
C404        C  0.78440952  0.49552365  0.69305830    -0.19500
C405        C  0.75172680  0.48341371  0.65901165    -0.28900
C406        C  0.71345748  0.46662075  0.66458898     0.44000
C407        C  0.73700765  0.46752771  0.77840616     0.05200
O408        O  0.81193766  0.50442521  0.76379001    -0.57500
H409        H  0.81396407  0.50914322  0.68989636     0.18100
O410        O  0.67998496  0.45632976  0.63231008    -0.64200
H411        H  0.67966559  0.44762592  0.70738291     0.16600
C412        C  0.70661743  0.49141187  0.78719138     0.28800
C413        C  0.70556222  0.49097101  0.82707920    -0.25100
C414        C  0.73472564  0.46714182  0.85890636    -0.24300
C415        C  0.76409632  0.44151393  0.84982131     0.40300
C416        C  0.76484120  0.44160254  0.80977700    -0.26800
O417        O  0.67982328  0.51821822  0.75748064    -0.58700
H418        H  0.68291473  0.51122067  0.83328822     0.15900
O419        O  0.79193206  0.41600689  0.87968374    -0.60100
H420        H  0.78797163  0.42237509  0.80330342     0.14300
H421        H  0.67986509  0.42200569  0.63057022     0.46200
H422        H  0.65354311  0.49888001  0.74994955     0.41600
H423        H  0.81797401  0.43585780  0.88601502     0.45000
H424        H  0.80693944  0.53725265  0.76695341     0.36500
C425        C  0.73919568  0.54799343  0.28835395    -0.27700
C426        C  0.76628180  0.51829825  0.28032021     0.01900
C427        C  0.78849643  0.48727098  0.31200511     0.29900
C428        C  0.78280925  0.48576471  0.35037042    -0.19500
C429        C  0.75434280  0.51401228  0.35768010    -0.28900
C430        C  0.73280710  0.54564273  0.32638353     0.44000
C431        C  0.76930390  0.51828493  0.23841678     0.05200
O432        O  0.81475832  0.45705846  0.30554590    -0.57500
H433        H  0.79940905  0.46096127  0.37401998     0.18100
O434        O  0.70526422  0.57434090  0.33258262    -0.64200
H435        H  0.72245686  0.57282638  0.26483543     0.16600
C436        C  0.73334045  0.51582411  0.20516692     0.28800
C437        C  0.73632194  0.51518794  0.16608952    -0.25100
C438        C  0.77484014  0.51541406  0.15891394    -0.24300
C439        C  0.81097086  0.51779670  0.19212584     0.40300
C440        C  0.80799458  0.51963564  0.23134923    -0.26800
O441        O  0.69489938  0.51259949  0.21057779    -0.58700
H442        H  0.70795500  0.51281351  0.14138807     0.15900
O443        O  0.84928806  0.51763572  0.18686134    -0.60100
H444        H  0.83608287  0.52198344  0.25635297     0.14300
H445        H  0.72221338  0.60196615  0.34476464     0.46200
H446        H  0.68632246  0.47874025  0.21011588     0.41600
H447        H  0.85750139  0.55111755  0.18208823     0.45000
H448        H  0.79670072  0.43076526  0.29214607     0.36500
C449        C  0.20546391  0.45399032  0.69614498    -0.27700
C450        C  0.22795758  0.48288064  0.72664943     0.01900
C451        C  0.25114561  0.52231237  0.71629501     0.29900
C452        C  0.25273348  0.53137404  0.67657104    -0.19500
C453        C  0.23119114  0.50185794  0.64604043    -0.28900
C454        C  0.20675776  0.46328130  0.65613290     0.44000
C455        C  0.22814144  0.47149281  0.76937528     0.05200
O456        O  0.27297979  0.55197095  0.74496025    -0.57500
H457        H  0.27155110  0.56144250  0.66984818     0.18100
O458        O  0.18590345  0.43286260  0.62778593    -0.64200
H459        H  0.18773663  0.42329790  0.70357124     0.16600
C460        C  0.19131858  0.46689663  0.78025852     0.28800
C461        C  0.19281779  0.46116619  0.82119465    -0.25100
C462        C  0.23077276  0.45888580  0.85197468    -0.24300
C463        C  0.26749202  0.46054388  0.84071609     0.40300
C464        C  0.26591372  0.46718787  0.79990638    -0.26800
O465        O  0.15384304  0.47089203  0.75125883    -0.58700
H466        H  0.16413514  0.45963309  0.82881956     0.15900
O467        O  0.30538972  0.45823129  0.86929661    -0.60100
H468        H  0.29453154  0.46979479  0.79206867     0.14300
H469        H  0.15700656  0.44259701  0.61857040     0.46200
H470        H  0.14219589  0.43825555  0.74747386     0.41600
H471        H  0.31135763  0.42452251  0.87326229     0.45000
H472        H  0.25223089  0.57211426  0.74868470     0.36500
C473        C  0.30087102  0.52366785  0.30897279    -0.27700
C474        C  0.27270291  0.49729833  0.27954046     0.01900
C475        C  0.24095384  0.46985248  0.29018340     0.29900
C476        C  0.23634526  0.47079545  0.32876127    -0.19500
C477        C  0.26316909  0.49879939  0.35793670    -0.28900
C478        C  0.29633231  0.52461552  0.34786321     0.44000
C479        C  0.27600822  0.49818294  0.23766520     0.05200
O480        O  0.21496340  0.44075976  0.26331177    -0.57500
H481        H  0.21121494  0.44955761  0.33562264     0.18100
O482        O  0.32440833  0.55096294  0.37557227    -0.64200
H483        H  0.32598499  0.54431704  0.30152457     0.16600
C484        C  0.24368726  0.51425874  0.20412604     0.28800
C485        C  0.24475308  0.50979350  0.16466917    -0.25100
C486        C  0.27797190  0.48951385  0.15743193    -0.24300
C487        C  0.31117839  0.47509888  0.19123585     0.40300
C488        C  0.31009629  0.47985648  0.23078113    -0.26800
O489        O  0.21033839  0.53353522  0.20960811    -0.58700
H490        H  0.21896348  0.52164059  0.13962247     0.15900
O491        O  0.34442176  0.45513014  0.18621364    -0.60100
H492        H  0.33526070  0.46740572  0.25620617     0.14300
H493        H  0.31477344  0.58333224  0.36942875     0.46200
H494        H  0.21811715  0.56747997  0.21154992     0.41600
H495        H  0.33757479  0.42086165  0.18743381     0.45000
H496        H  0.18830394  0.45619719  0.25348855     0.36500
C497        C  0.55938735  0.52367170  0.55219868    -0.27700
C498        C  0.53004457  0.48992076  0.53219945     0.01900
C499        C  0.54011076  0.46098239  0.50666427     0.29900
C500        C  0.57743214  0.46879481  0.49825367    -0.19500
C501        C  0.60595460  0.50450476  0.51592165    -0.28900
C502        C  0.59761270  0.53076309  0.54451279     0.44000
C503        C  0.48705983  0.48938296  0.53264801     0.05200
O504        O  0.51265857  0.42634271  0.48821539    -0.57500
H505        H  0.58393339  0.44673655  0.47753350     0.18100
O506        O  0.62577467  0.56420744  0.56394284    -0.64200
H507        H  0.55189293  0.54604305  0.57208906     0.16600
C508        C  0.47611604  0.48211089  0.56858200     0.28800
C509        C  0.43459034  0.48223019  0.56696758    -0.25100
C510        C  0.40387139  0.48975218  0.52972220    -0.24300
C511        C  0.41512296  0.49618828  0.49378061     0.40300
C512        C  0.45643180  0.49646899  0.49557474    -0.26800
O513        O  0.50554316  0.47385325  0.60505303    -0.58700
H514        H  0.42648196  0.47706051  0.59491894     0.15900
O515        O  0.38644028  0.50526944  0.45696847    -0.60100
H516        H  0.46472736  0.50292413  0.46775941     0.14300
H517        H  0.61803257  0.59404979  0.54742810     0.46200
H518        H  0.51074928  0.50418063  0.61772126     0.41600
H519        H  0.37916025  0.47449668  0.44509347     0.45000
H520        H  0.51879296  0.39808122  0.50731534     0.36500
C521        C  0.93598057  0.50146233  0.45852995    -0.27700
C522        C  0.97320106  0.49097698  0.48791599     0.01900
C523        C  0.97239088  0.46557500  0.52445404     0.29900
C524        C  0.93484059  0.45557188  0.53276926    -0.19500
C525        C  0.89787861  0.46842517  0.50406517    -0.28900
C526        C  0.89847288  0.48958521  0.46605372     0.44000
C527        C  0.01247634  0.50929288  0.48114905     0.05200
O528        O  0.00819060  0.45198877  0.55274308    -0.57500
H529        H  0.93466337  0.43910873  0.56205287     0.18100
O530        O  0.86276093  0.50224256  0.43717713    -0.64200
H531        H  0.93585467  0.52130298  0.43044896     0.16600
C532        C  0.02063705  0.50414962  0.44453030     0.28800
C533        C  0.05929102  0.51852024  0.44033557    -0.25100
C534        C  0.09044289  0.53708603  0.47257287    -0.24300
C535        C  0.08099687  0.54624498  0.50771622     0.40300
C536        C  0.04209984  0.53260047  0.51167074    -0.26800
O537        O  0.99262038  0.48097339  0.41428349    -0.58700
H538        H  0.06596631  0.51080279  0.41315113     0.15900
O539        O  0.11030683  0.56563775  0.53937230    -0.60100
H540        H  0.03554328  0.53881021  0.53927692     0.14300
H541        H  0.86031687  0.53576739  0.44038489     0.46200
H542        H  0.98293825  0.50519378  0.39171964     0.41600
H543        H  0.10903364  0.60001091  0.53291537     0.45000
H544        H  0.01065996  0.41894917  0.54796518     0.36500
C545        C  0.46195373  0.97412028  0.69901066    -0.27700
C546        C  0.49413870  0.99183312  0.73071699     0.01900
C547        C  0.52950525  0.01368289  0.72275659     0.29900
C548        C  0.53207067  0.01851808  0.68331562    -0.19500
C549        C  0.49982064  0.00122509  0.65105775    -0.28900
C550        C  0.46464561  0.97822658  0.65937294     0.44000
C551        C  0.49088597  0.98743416  0.77220077     0.05200
O552        O  0.56188444  0.03023909  0.75345699    -0.57500
H553        H  0.55972015  0.03572923  0.67816760     0.18100
O554        O  0.43385981  0.95762403  0.62952784    -0.64200
H555        H  0.43494674  0.95635021  0.70514662     0.16600
C556        C  0.46170421  0.01203549  0.78215724     0.28800
C557        C  0.46085030  0.00978979  0.82217030    -0.25100
C558        C  0.48867664  0.98273276  0.85284417    -0.24300
C559        C  0.51735691  0.95727607  0.84241468     0.40300
C560        C  0.51830329  0.95990903  0.80237000    -0.26800
O561        O  0.43514302  0.04001037  0.75329725    -0.58700
H562        H  0.43845584  0.02972198  0.82913044     0.15900
O563        O  0.54424618  0.92922683  0.87083302    -0.60100
H564        H  0.54069017  0.94055144  0.79480982     0.14300
H565        H  0.40814042  0.97239654  0.62842918     0.46200
H566        H  0.40924059  0.02033155  0.74400866     0.41600
H567        H  0.56991011  0.94921890  0.88045014     0.45000
H568        H  0.55583936  0.06307873  0.75526539     0.36500
C569        C  0.51336715  0.95632957  0.22203312    -0.27700
C570        C  0.49864853  0.99711209  0.23057398     0.01900
C571        C  0.48730666  0.03380376  0.20028767     0.29900
C572        C  0.49069175  0.02926004  0.16174654    -0.19500
C573        C  0.50568871  0.98842712  0.15310825    -0.28900
C574        C  0.51688136  0.95168949  0.18371602     0.44000
C575        C  0.49465508  0.00023918  0.27115711     0.05200
O576        O  0.47286981  0.07409520  0.20809082    -0.57500
H577        H  0.48207356  0.05793125  0.13875801     0.18100
O578        O  0.53098209  0.91086112  0.17652265    -0.64200
H579        H  0.52215877  0.92791026  0.24525790     0.16600
C580        C  0.46667820  0.96965350  0.28495920     0.28800
C581        C  0.46430690  0.97151919  0.32409761    -0.25100
C582        C  0.49036396  0.00296185  0.35036254    -0.24300
C583        C  0.51846457  0.03366942  0.33638129     0.40300
C584        C  0.52013624  0.03240057  0.29682539    -0.26800
O585        O  0.44092130  0.93851677  0.26001047    -0.58700
H586        H  0.44233900  0.94778053  0.33404239     0.15900
O587        O  0.54344714  0.06600288  0.36058485    -0.60100
H588        H  0.54182239  0.05603266  0.28634512     0.14300
H589        H  0.50589833  0.89004364  0.16667119     0.46200
H590        H  0.45446816  0.90821277  0.26748679     0.41600
H591        H  0.57055649  0.05168107  0.37180302     0.45000
H592        H  0.44268500  0.06765788  0.20256488     0.36500
C593        C  0.35605117  0.81849140  0.46097237    -0.27700
C594        C  0.36996919  0.79230470  0.49814784     0.01900
C595        C  0.40047571  0.81261537  0.53008147     0.29900
C596        C  0.41641532  0.85854527  0.52456306    -0.19500
C597        C  0.40239401  0.88520075  0.48736755    -0.28900
C598        C  0.37167970  0.86447569  0.45542553     0.44000
C599        C  0.35308349  0.74343978  0.50277036     0.05200
O600        O  0.41641031  0.78692238  0.56608013    -0.57500
H601        H  0.44014721  0.87308392  0.54956311     0.18100
O602        O  0.35686412  0.88843226  0.41841053    -0.64200
H603        H  0.33265434  0.80324244  0.43609433     0.16600
C604        C  0.33382306  0.72941949  0.53286000     0.28800
C605        C  0.31892543  0.68288572  0.53708545    -0.25100
C606        C  0.32244724  0.64956143  0.51132609    -0.24300
C607        C  0.34136771  0.66384959  0.48086500     0.40300
C608        C  0.35609969  0.71048476  0.47659423    -0.26800
O609        O  0.32934727  0.76093204  0.55830839    -0.58700
H610        H  0.30458511  0.67283892  0.56071082     0.15900
O611        O  0.34693403  0.63230979  0.45594434    -0.60100
H612        H  0.37092558  0.72071827  0.45335473     0.14300
H613        H  0.33235031  0.90392298  0.41982933     0.46200
H614        H  0.30356666  0.77663280  0.54348379     0.41600
H615        H  0.37376119  0.61861148  0.47055155     0.45000
H616        H  0.40741848  0.80192093  0.58631239     0.36500
C617        C  0.59916191  0.21873947  0.52450179    -0.27700
C618        C  0.61965844  0.22796655  0.49493428     0.01900
C619        C  0.62015830  0.19242594  0.46986096     0.29900
C620        C  0.60109731  0.14812887  0.47521359    -0.19500
C621        C  0.58137178  0.13851804  0.50545637    -0.28900
C622        C  0.57989229  0.17461570  0.52968581     0.44000
C623        C  0.64057464  0.27478871  0.49101694     0.05200
O624        O  0.64129005  0.19985282  0.44174681    -0.57500
H625        H  0.60303473  0.12073108  0.45655458     0.18100
O626        O  0.55971071  0.16719295  0.55853584    -0.64200
H627        H  0.59804380  0.24599663  0.54361723     0.16600
C628        C  0.62854803  0.30386973  0.45500619     0.28800
C629        C  0.64689081  0.34912905  0.45291540    -0.25100
C630        C  0.67668355  0.36667968  0.48675092    -0.24300
C631        C  0.68938661  0.33707117  0.52254353     0.40300
C632        C  0.67133543  0.29160473  0.52444201    -0.26800
O633        O  0.59759505  0.28914633  0.42226249    -0.58700
H634        H  0.63615702  0.37137929  0.42528382     0.15900
O635        O  0.71880674  0.35243103  0.55610908    -0.60100
H636        H  0.68095916  0.26954675  0.55233557     0.14300
H637        H  0.53045854  0.17331925  0.54399283     0.46200
H638        H  0.57216503  0.30204521  0.42429584     0.41600
H639        H  0.74561922  0.34656355  0.55219950     0.45000
H640        H  0.61979663  0.20109472  0.41510533     0.36500
C641        C  0.02219240  0.96660587  0.80133186    -0.27700
C642        C  0.98517330  0.96321525  0.76974479     0.01900
C643        C  0.94765550  0.95498853  0.77900703     0.29900
C644        C  0.94734617  0.95271634  0.81932920    -0.19500
C645        C  0.98427828  0.95804274  0.85099308    -0.28900
C646        C  0.02202978  0.96365268  0.84166261     0.44000
C647        C  0.98593684  0.97191122  0.72732148     0.05200
O648        O  0.91102359  0.95097066  0.74876694    -0.57500
H649        H  0.91800084  0.94803621  0.82574819     0.18100
O650        O  0.05873266  0.96984142  0.87138672    -0.64200
H651        H  0.05131364  0.97281278  0.79458488     0.16600
C652        C  0.00029924  0.01582119  0.71377703     0.28800
C653        C  0.00180400  0.02371098  0.67400002    -0.25100
C654        C  0.98939912  0.98815669  0.64694599    -0.24300
C655        C  0.97462068  0.94417527  0.66048788     0.40300
C656        C  0.97268521  0.93649494  0.70033513    -0.26800
O657        O  0.01189372  0.05170191  0.73899830    -0.58700
H658        H  0.01304909  0.05788525  0.66443738     0.15900
O659        O  0.96297172  0.90811122  0.63549357    -0.60100
H660        H  0.96168347  0.90247841  0.71048386     0.14300
H661        H  0.06950135  0.93806601  0.87901875     0.46200
H662        H  0.04250199  0.05273379  0.74834106     0.41600
H663        H  0.98826039  0.89067589  0.64029845     0.45000
H664        H  0.90111846  0.98321392  0.74226807     0.36500
C665        C  0.97775081  0.01968579  0.19931187    -0.27700
C666        C  0.01221610  0.00691030  0.23179238     0.01900
C667        C  0.04757194  0.99358638  0.22368260     0.29900
C668        C  0.04806486  0.99267045  0.18372332    -0.19500
C669        C  0.01352224  0.00480141  0.15089986    -0.28900
C670        C  0.97825122  0.01906950  0.15915162     0.44000
C671        C  0.01018987  0.00436034  0.27395737     0.05200
O672        O  0.08076200  0.97821492  0.25463565    -0.57500
H673        H  0.07543525  0.98101313  0.17858632     0.18100
O674        O  0.94359796  0.03089315  0.12842099    -0.64200
H675        H  0.95016991  0.02968806  0.20515417     0.16600
C676        C  0.03824874  0.03075329  0.30358261     0.28800
C677        C  0.03680701  0.02580931  0.34362996    -0.25100
C678        C  0.00753044  0.99462068  0.35495598    -0.24300
C679        C  0.97941020  0.96821508  0.32495544     0.40300
C680        C  0.98074314  0.97360048  0.28498619    -0.26800
O681        O  0.06709020  0.06167927  0.29364245    -0.58700
H682        H  0.05853445  0.04672834  0.36578043     0.15900
O683        O  0.94991884  0.93748942  0.33400442    -0.60100
H684        H  0.95906870  0.95292896  0.26256382     0.14300
H685        H  0.94723314  0.06520778  0.12255757     0.46200
H686        H  0.05323295  0.09170328  0.28509002     0.41600
H687        H  0.96204350  0.90634609  0.33896334     0.45000
H688        H  0.10264641  0.00364356  0.25669385     0.36500
C689        C  0.71621810  0.95757100  0.52624208    -0.27700
C690        C  0.72143396  0.97499974  0.48902113     0.01900
C691        C  0.68699578  0.98823423  0.45662860     0.29900
C692        C  0.64818280  0.98638551  0.46247001    -0.19500
C693        C  0.64360148  0.97260052  0.50067578    -0.28900
C694        C  0.67761301  0.95673238  0.53236174     0.44000
C695        C  0.76321479  0.98214642  0.48509166     0.05200
O696        O  0.69135919  0.00560843  0.41996085    -0.57500
H697        H  0.62226169  0.99902886  0.43792707     0.18100
O698        O  0.67382427  0.94238614  0.56985644    -0.64200
H699        H  0.74246329  0.94626140  0.55103919     0.16600
C700        C  0.79362842  0.00944654  0.51194794     0.28800
C701        C  0.83324276  0.01570441  0.50789131    -0.25100
C702        C  0.84265659  0.99547728  0.47693848    -0.24300
C703        C  0.81200319  0.96884947  0.44964808     0.40300
C704        C  0.77261022  0.96208630  0.45405900    -0.26800
O705        O  0.78447235  0.03121184  0.54139411    -0.58700
H706        H  0.85668139  0.03616526  0.52903564     0.15900
O707        O  0.82101540  0.94666792  0.42034705    -0.60100
H708        H  0.74950461  0.94053661  0.43361076     0.14300
H709        H  0.66232912  0.90954125  0.56772015     0.46200
H710        H  0.79743114  0.01270526  0.56707210     0.41600
H711        H  0.81218800  0.96788484  0.39544352     0.45000
H712        H  0.69818355  0.03966072  0.42253128     0.36500
C713        C  0.21846011  0.08361439  0.52928322    -0.27700
C714        C  0.23366417  0.05709385  0.50588013     0.01900
C715        C  0.21112722  0.01670776  0.48927143     0.29900
C716        C  0.17301799  0.00394218  0.49547941    -0.19500
C717        C  0.15745690  0.03069210  0.51863258    -0.28900
C718        C  0.18065178  0.07069593  0.53588845     0.44000
C719        C  0.27464672  0.06944373  0.50152439     0.05200
O720        O  0.22722065  0.98833155  0.46882585    -0.57500
H721        H  0.15575527  0.97297010  0.48236728     0.18100
O722        O  0.16581692  0.09876035  0.55757273    -0.64200
H723        H  0.23596147  0.11448412  0.54237732     0.16600
C724        C  0.28017932  0.07742577  0.46313109     0.28800
C725        C  0.31972468  0.07714067  0.45934478    -0.25100
C726        C  0.35369131  0.06804928  0.49360331    -0.24300
C727        C  0.34849491  0.06717877  0.53238481     0.40300
C728        C  0.30890068  0.06774464  0.53606204    -0.26800
O729        O  0.24690868  0.08388536  0.42930517    -0.58700
H730        H  0.32307920  0.08025162  0.42923073     0.15900
O731        O  0.38134668  0.06299105  0.56676942    -0.60100
H732        H  0.30472687  0.06317739  0.56586938     0.14300
H733        H  0.17982037  0.08931514  0.58634575     0.46200
H734        H  0.24542635  0.05680582  0.41309804     0.41600
H735        H  0.38060716  0.02937725  0.57634744     0.45000
H736        H  0.20882925  0.99032881  0.44059011     0.36500
C737        C  0.86224721  0.70076075  0.54256614    -0.27700
C738        C  0.87621420  0.71297658  0.50873569     0.01900
C739        C  0.87110109  0.67977905  0.48001464     0.29900
C740        C  0.85201428  0.63551044  0.48518807    -0.19500
C741        C  0.83791886  0.62305029  0.51897861    -0.28900
C742        C  0.84312480  0.65641951  0.54777129     0.44000
C743        C  0.89473171  0.76090939  0.50285994     0.05200
O744        O  0.88661749  0.68953231  0.44785959    -0.57500
H745        H  0.84921808  0.61046940  0.46299900     0.18100
O746        O  0.82976918  0.64621277  0.58118541    -0.64200
H747        H  0.86566999  0.72598730  0.56479064     0.16600
C748        C  0.87817072  0.78908516  0.46710820     0.28800
C749        C  0.89581158  0.83380229  0.46145560    -0.25100
C750        C  0.92950043  0.85261822  0.49156142    -0.24300
C751        C  0.94571521  0.82470377  0.52785738     0.40300
C752        C  0.92835059  0.77924724  0.53321259    -0.26800
O753        O  0.84372740  0.77386635  0.43786098    -0.58700
H754        H  0.88173799  0.85448196  0.43365411     0.15900
O755        O  0.97787839  0.84158236  0.55854821    -0.60100
H756        H  0.94117776  0.75822753  0.56115637     0.14300
H757        H  0.80046251  0.65448554  0.57236163     0.46200
H758        H  0.81999613  0.78249751  0.44615733     0.41600
H759        H  0.00313503  0.83183897  0.55361000     0.45000
H760        H  0.86231529  0.68950522  0.42336454     0.36500
C761        C  0.11080842  0.31363176  0.45087686    -0.27700
C762        C  0.11599832  0.29033650  0.48921707     0.01900
C763        C  0.14266248  0.31121874  0.52329269     0.29900
C764        C  0.16298012  0.35500919  0.51868997    -0.19500
C765        C  0.15713706  0.37900228  0.48033987    -0.28900
C766        C  0.13100377  0.35727914  0.44615956     0.44000
C767        C  0.09509376  0.24318144  0.49266431     0.05200
O768        O  0.15041693  0.28817030  0.56099913    -0.57500
H769        H  0.18299913  0.37039274  0.54546503     0.18100
O770        O  0.12407803  0.37862794  0.40791660    -0.64200
H771        H  0.09066809  0.29794616  0.42429700     0.16600
C772        C  0.07017137  0.23268655  0.51850720     0.28800
C773        C  0.05301042  0.18698001  0.52260549    -0.25100
C774        C  0.05924121  0.15133852  0.50027556    -0.24300
C775        C  0.08259321  0.16269567  0.47293425     0.40300
C776        C  0.10029652  0.20803676  0.46952250    -0.26800
O777        O  0.06257992  0.26670027  0.54009769    -0.58700
H778        H  0.03526038  0.17923362  0.54375087     0.15900
O779        O  0.09119919  0.12890767  0.45171037    -0.60100
H780        H  0.11933441  0.21539331  0.44949693     0.14300
H781        H  0.14458571  0.36612923  0.39706047     0.46200
H782        H  0.03937380  0.28374096  0.52110421     0.41600
H783        H  0.07183801  0.13337497  0.42405281     0.45000
H784        H  0.13809968  0.30693559  0.57649159     0.36500
loop_ 
_geom_bond_atom_site_label_1 
_geom_bond_atom_site_label_2 
_geom_bond_distance 
_geom_bond_site_symmetry_2 
_ccdc_geom_bond_type 
O1           Ni7   1.913       .  S
O1           C22   1.266   1_655  A
O2          Ni25   1.910       .  S
O2           C11   1.269       .  A
O3           Ni7   1.893   1_545  S
O3          Ni25   1.898   1_545  S
O3          Ni19   1.904   1_655  S
O3           H26   0.966       .  S
C4           O21   1.276   1_545  A
C4           O13   1.276       .  A
C4          C717   1.464       .  S
O5          Ni24   1.930       .  S
O5           C11   1.273   1_445  A
O6          Ni24   1.914       .  S
O6            C8   1.270       .  A
Ni7          O10   1.904   1_565  S
Ni7          O12   1.903       .  S
C8           O18   1.273       .  A
C8          C774   1.489       .  S
O9          Ni25   1.913       .  S
O9           C15   1.277       .  A
O10          C15   1.276   1_545  A
C11         C654   1.486       .  S
O12          C14   1.268       .  A
O13         Ni24   1.919       .  S
C14          O20   1.274       .  A
C14         C750   1.493       .  S
C15         C702   1.458       .  S
H16          O17   0.966       .  S
O17         Ni25   1.899   1_455  S
O17         Ni19   1.908   1_565  S
O17         Ni24   1.902   1_565  S
O18         Ni19   1.935       .  S
Ni19         O23   1.927       .  S
Ni19         O21   1.897   1_545  S
O20         Ni25   1.936       .  S
C22          O23   1.272   1_565  A
C22         C678   1.491       .  S
O27         Ni33   1.922   1_565  S
O27          C48   1.268   1_565  A
O28         Ni51   1.904   1_565  S
O28          C37   1.267   1_565  A
O29         Ni33   1.906       .  S
O29         Ni51   1.901       .  S
O29         Ni45   1.894       .  S
O29          H52   0.966       .  S
C30          O47   1.268       .  A
C30          O39   1.275       .  A
C30         C693   1.460       .  S
O31         Ni50   1.929       .  S
O31          C37   1.273       .  A
O32         Ni50   1.911       .  S
O32          C34   1.269       .  A
Ni33         O36   1.905       .  S
Ni33         O38   1.912   1_545  S
C34          O44   1.272       .  A
C34         C621   1.482       .  S
O35         Ni51   1.905       .  S
O35          C41   1.274       .  A
O36          C41   1.274       .  A
C37         C549   1.487       .  S
O38          C40   1.269       .  A
O39         Ni50   1.924   1_565  S
C40          O46   1.271       .  A
C40         C597   1.494       .  S
C41         C726   1.473       .  S
H42          O43   0.966       .  S
O43         Ni51   1.901   1_565  S
O43         Ni45   1.908   1_565  S
O43         Ni50   1.907   1_565  S
O44         Ni45   1.934       .  S
Ni45         O49   1.902       .  S
Ni45         O47   1.887   1_545  S
O46         Ni51   1.925   1_565  S
C48          O49   1.264       .  A
C48         C582   1.477       .  S
O53         Ni59   1.930       .  S
O53          C74   1.272       .  A
O54         Ni77   1.922       .  S
O54          C63   1.271       .  A
O55         Ni59   1.900       .  S
O55         Ni77   1.909       .  S
O55         Ni71   1.906       .  S
O55          H78   0.966       .  S
C56          O73   1.275       .  A
C56          O65   1.277       .  A
C56         C510   1.468       .  S
O57         Ni76   1.929       .  S
O57          C63   1.271       .  A
O58         Ni76   1.906       .  S
O58          C60   1.269       .  A
Ni59         O62   1.914       .  S
Ni59         O64   1.910       .  S
C60          O70   1.273       .  A
C60         C606   1.485       .  S
O61         Ni77   1.904       .  S
O61          C67   1.274       .  A
O62          C67   1.276       .  A
C63         C453   1.493       .  S
O64          C66   1.269       .  A
O65         Ni76   1.920       .  S
C66          O72   1.275       .  A
C66         C765   1.493       .  S
C67         C534   1.467       .  S
H68          O69   0.966       .  S
O69         Ni77   1.896       .  S
O69         Ni71   1.907       .  S
O69         Ni76   1.903       .  S
O70         Ni71   1.934       .  S
Ni71         O75   1.931       .  S
Ni71         O73   1.894       .  S
O72         Ni77   1.930       .  S
C74          O75   1.272       .  A
C74         C477   1.501       .  S
O79         Ni85   1.923       .  S
O79         C100   1.269       .  A
O80        Ni103   1.900       .  S
O80          C89   1.267       .  A
O81         Ni85   1.920       .  S
O81        Ni103   1.916       .  S
O81         Ni97   1.923       .  S
O81         H104   0.967       .  S
C82          O99   1.265       .  A
C82          O91   1.275       .  A
C82         C525   1.460       .  S
O83        Ni102   1.933       .  S
O83          C89   1.274       .  A
O84        Ni102   1.909       .  S
O84          C86   1.270       .  A
Ni85         O88   1.917       .  S
Ni85         O90   1.908       .  S
C86          O96   1.278       .  A
C86         C741   1.490       .  S
O87        Ni103   1.898       .  S
O87          C93   1.261       .  A
O88          C93   1.268       .  A
C89         C405   1.488       .  S
O90          C92   1.276       .  A
O91        Ni102   1.933       .  S
C92          O98   1.282       .  A
C92         C630   1.483       .  S
C93         C501   1.468       .  S
H94          O95   0.967       .  S
O95        Ni103   1.891       .  S
O95         Ni97   1.896       .  S
O95        Ni102   1.911       .  S
O96         Ni97   1.947       .  S
Ni97        O101   1.907       .  S
Ni97         O99   1.886       .  S
O98        Ni103   1.952       .  S
C100        O101   1.266       .  A
C100        C429   1.480       .  S
O105       Ni111   1.932   1_565  S
O105        C126   1.271       .  A
O106       Ni129   1.917       .  S
O106        C115   1.268   1_645  A
O107       Ni111   1.915       .  S
O107       Ni129   1.906   1_556  S
O107       Ni123   1.919   1_645  S
O107        H130   0.966   1_655  S
C108        O125   1.280   1_554  A
C108        O117   1.277       .  A
C108        C390   1.489       .  S
O109       Ni128   1.926       .  S
O109        C115   1.269       .  A
O110       Ni128   1.904       .  S
O110        C112   1.269       .  A
Ni111       O114   1.928       .  S
Ni111       O116   1.913       .  S
C112        O122   1.272   1_554  A
C112        C333   1.492       .  S
O113       Ni129   1.903       .  S
O113        C119   1.274   1_554  A
O114        C119   1.278       .  A
C115        C669   1.492   1_565  S
O116        C118   1.270   1_545  A
O117       Ni128   1.915       .  S
C118        O124   1.273   1_556  A
C118        C309   1.494       .  S
C119        C357   1.479       .  S
H120        O121   0.966   1_655  S
O121       Ni129   1.906   1_465  S
O121       Ni123   1.907   1_554  S
O121       Ni128   1.904       .  S
O122       Ni123   1.931       .  S
Ni123       O127   1.912       .  S
Ni123       O125   1.925       .  S
O124       Ni129   1.925   1_565  S
C126        O127   1.269   1_655  A
C126        C645   1.485       .  S
O131       Ni137   1.932       .  S
O131        C152   1.274       .  A
O132       Ni155   1.908       .  S
O132        C141   1.270       .  A
O133       Ni137   1.898       .  S
O133       Ni155   1.899   1_554  S
O133       Ni149   1.912       .  S
O133        H156   0.966   1_565  S
C134        O151   1.280   1_556  A
C134        O143   1.277       .  A
C134        C342   1.489   1_556  S
O135       Ni154   1.923   1_545  S
O135        C141   1.271   1_545  A
O136       Ni154   1.911   1_545  S
O136        C138   1.269       .  A
Ni137       O140   1.928       .  S
Ni137       O142   1.908       .  S
C138        O148   1.275   1_556  A
C138        C261   1.493       .  S
O139       Ni155   1.931       .  S
O139        C145   1.281   1_556  A
O140        C145   1.278       .  A
C141        C558   1.484       .  S
O142        C144   1.270       .  A
O143       Ni154   1.921       .  S
C144        O150   1.274   1_554  A
C144        C285   1.492       .  S
C145        C318   1.489       .  S
H146        O147   0.966       .  S
O147       Ni155   1.920       .  S
O147       Ni149   1.895   1_556  S
O147       Ni154   1.899       .  S
O148       Ni149   1.930   1_545  S
Ni149       O153   1.901   1_565  S
Ni149       O151   1.934       .  S
O150       Ni155   1.935       .  S
C152        O153   1.269   1_565  A
C152        C573   1.478       .  S
O157       Ni163   1.936       .  S
O157        C178   1.277       .  A
O158       Ni181   1.913       .  S
O158        C167   1.274       .  A
O159       Ni163   1.908       .  S
O159       Ni181   1.900   1_556  S
O159       Ni175   1.921       .  S
O159        H182   0.966       .  S
C160        O177   1.277   1_554  A
C160        O169   1.280       .  A
C160        C270   1.487       .  S
O161       Ni180   1.947       .  S
O161        C167   1.279       .  A
O162       Ni180   1.929       .  S
O162        C164   1.276       .  A
Ni163       O166   1.919       .  S
Ni163       O168   1.939       .  S
C164        O174   1.286   1_554  A
C164        C213   1.536       .  S
O165       Ni181   1.926       .  S
O165        C171   1.282   1_554  A
O166        C171   1.278       .  A
C167        C486   1.501       .  S
O168        C170   1.277       .  A
O169       Ni180   1.932       .  S
C170        O176   1.285   1_556  A
C170        C246   1.532       .  S
C171        C381   1.473   1_556  S
H172        O173   0.966       .  S
O173       Ni181   1.929       .  S
O173       Ni175   1.907   1_554  S
O173       Ni180   1.908       .  S
O174       Ni175   1.977       .  S
Ni175       O179   1.905       .  S
Ni175       O177   1.919       .  S
O176       Ni181   1.970       .  S
C178        O179   1.270       .  A
C178        C462   1.492       .  S
O183       Ni189   1.935       .  S
O183        C204   1.275       .  A
O184       Ni207   1.896       .  S
O184        C193   1.269       .  A
O185       Ni189   1.917       .  S
O185       Ni207   1.902   1_556  S
O185       Ni201   1.931       .  S
O185        H208   0.967       .  S
C186        O203   1.280   1_554  A
C186        O195   1.278       .  A
C186        C366   1.473       .  S
O187       Ni206   1.938       .  S
O187        C193   1.276       .  A
O188       Ni206   1.933       .  S
O188        C190   1.276       .  A
Ni189       O192   1.938       .  S
Ni189       O194   1.930       .  S
C190        O200   1.288   1_554  A
C190        C237   1.541       .  S
O191       Ni207   1.916       .  S
O191        C197   1.277   1_554  A
O192        C197   1.280       .  A
C193        C438   1.489       .  S
O194        C196   1.273       .  A
O195       Ni206   1.915       .  S
C196        O202   1.283   1_556  A
C196        C222   1.526       .  S
C197        C294   1.485   1_556  S
H198        O199   0.966       .  S
O199       Ni207   1.917       .  S
O199       Ni201   1.897   1_554  S
O199       Ni206   1.906       .  S
O200       Ni201   1.981       .  S
Ni201       O205   1.905       .  S
Ni201       O203   1.922       .  S
O202       Ni207   1.970       .  S
C204        O205   1.270       .  A
C204        C414   1.483       .  S
C209        C210   1.408       .  A
C209        C214   1.414       .  A
C209        H219   1.083       .  S
C210        C215   1.536       .  S
C210        C211   1.422   1_554  A
C211        C212   1.426       .  A
C211        O216   1.371       .  S
C212        C213   1.415   1_556  A
C212        H217   1.083       .  S
C213        C214   1.424       .  A
C214        O218   1.371       .  S
C215        C220   1.420       .  A
C215        C224   1.414   1_554  A
O216        H232   0.992       .  S
O218        H229   0.992       .  S
C220        C221   1.417       .  A
C220        O225   1.371       .  S
C221        C222   1.411   1_554  A
C221        H226   1.083       .  S
C222        C223   1.420       .  A
C223        C224   1.422       .  A
C223        O227   1.371       .  S
C224        H228   1.083       .  S
O225        H230   0.992       .  S
O227        H231   0.992       .  S
C233        C234   1.412       .  A
C233        C238   1.418       .  A
C233        H243   1.082       .  S
C234        C239   1.548   1_655  S
C234        C235   1.426   1_554  A
C235        C236   1.428       .  A
C235        O240   1.371       .  S
C236        C237   1.415   1_556  A
C236        H241   1.083       .  S
C237        C238   1.424       .  A
C238        O242   1.371       .  S
C239        C244   1.424       .  A
C239        C248   1.417   1_554  A
O240        H256   0.992       .  S
O242        H253   0.992       .  S
C244        C245   1.421       .  A
C244        O249   1.371       .  S
C245        C246   1.412   1_554  A
C245        H250   1.083       .  S
C246        C247   1.420       .  A
C247        C248   1.424       .  A
C247        O251   1.371       .  S
C248        H252   1.082       .  S
O249        H254   0.992       .  S
O251        H255   0.992       .  S
C257        C258   1.402       .  A
C257        C262   1.401       .  A
C257        H267   1.083       .  S
C258        C263   1.490       .  S
C258        C259   1.410   1_556  A
C259        C260   1.402       .  A
C259        O264   1.371       .  S
C260        C261   1.407   1_554  A
C260        H265   1.083       .  S
C261        C262   1.418       .  A
C262        O266   1.372       .  S
C263        C268   1.410       .  A
C263        C272   1.405   1_556  A
O264        H280   0.992       .  S
O266        H277   0.992       .  S
C268        C269   1.403       .  A
C268        O273   1.372       .  S
C269        C270   1.408   1_556  A
C269        H274   1.084       .  S
C270        C271   1.411       .  A
C271        C272   1.401       .  A
C271        O275   1.371       .  S
C272        H276   1.083       .  S
O273        H278   0.992       .  S
O275        H279   0.992       .  S
C281        C282   1.407   1_556  A
C281        C286   1.403       .  A
C281        H291   1.083       .  S
C282        C287   1.497       .  S
C282        C283   1.411       .  A
C283        C284   1.404       .  A
C283        O288   1.373       .  S
C284        C285   1.408       .  A
C284        H289   1.083       .  S
C285        C286   1.412   1_554  A
C286        O290   1.371       .  S
C287        C292   1.412       .  A
C287        C296   1.408   1_554  A
O288        H304   0.992       .  S
O290        H301   0.991       .  S
C292        C293   1.402       .  A
C292        O297   1.371       .  S
C293        C294   1.406       .  A
C293        H298   1.084       .  S
C294        C295   1.408   1_554  A
C295        C296   1.404       .  A
C295        O299   1.371       .  S
C296        H300   1.083       .  S
O297        H302   0.992       .  S
O299        H303   0.992       .  S
C305        C306   1.405       .  A
C305        C310   1.404       .  A
C305        H315   1.083       .  S
C306        C311   1.496       .  S
C306        C307   1.412   1_556  A
C307        C308   1.400       .  A
C307        O312   1.372       .  S
C308        C309   1.408   1_554  A
C308        H313   1.084       .  S
C309        C310   1.415       .  A
C310        O314   1.371       .  S
C311        C316   1.415   1_565  A
C311        C320   1.402   1_556  A
O312        H328   0.992   1_565  S
O314        H325   0.992       .  S
C316        C317   1.409       .  A
C316        O321   1.372       .  S
C317        C318   1.404   1_546  A
C317        H322   1.083       .  S
C318        C319   1.414       .  A
C319        C320   1.399       .  A
C319        O323   1.373       .  S
C320        H324   1.083       .  S
O321        H326   0.992       .  S
O323        H327   0.992       .  S
C329        C330   1.406   1_556  A
C329        C334   1.404       .  A
C329        H339   1.083       .  S
C330        C335   1.489       .  S
C330        C331   1.407       .  A
C331        C332   1.399       .  A
C331        O336   1.372       .  S
C332        C333   1.409       .  A
C332        H337   1.083       .  S
C333        C334   1.414   1_554  A
C334        O338   1.371   1_565  S
C335        C340   1.409   1_554  A
C335        C344   1.404       .  A
O336        H352   0.992       .  S
O338        H349   0.992       .  S
C340        C341   1.404       .  A
C340        O345   1.372       .  S
C341        C342   1.407   1_556  A
C341        H346   1.083       .  S
C342        C343   1.414       .  A
C343        C344   1.402       .  A
C343        O347   1.372   1_565  S
C344        H348   1.084   1_565  S
O345        H350   0.992       .  S
O347        H351   0.992       .  S
C353        C354   1.403   1_556  A
C353        C358   1.401       .  A
C353        H363   1.084       .  S
C354        C359   1.476       .  S
C354        C355   1.405       .  A
C355        C356   1.395       .  A
C355        O360   1.373       .  S
C356        C357   1.406   1_554  A
C356        H361   1.084       .  S
C357        C358   1.411       .  A
C358        O362   1.371       .  S
C359        C364   1.405       .  A
C359        C368   1.405   1_554  A
O360        H376   0.992       .  S
O362        H373   0.992       .  S
C364        C365   1.393       .  A
C364        O369   1.372       .  S
C365        C366   1.405       .  A
C365        H370   1.083       .  S
C366        C367   1.408   1_554  A
C367        C368   1.401       .  A
C367        O371   1.372       .  S
C368        H372   1.083       .  S
O369        H374   0.992       .  S
O371        H375   0.992       .  S
C377        C378   1.403   1_556  A
C377        C382   1.401       .  A
C377        H387   1.084       .  S
C378        C383   1.481       .  S
C378        C379   1.408       .  A
C379        C380   1.401       .  A
C379        O384   1.373       .  S
C380        C381   1.403       .  A
C380        H385   1.084       .  S
C381        C382   1.409   1_554  A
C382        O386   1.372       .  S
C383        C388   1.403       .  A
C383        C392   1.406   1_554  A
O384        H400   0.992       .  S
O386        H397   0.992       .  S
C388        C389   1.395       .  A
C388        O393   1.373       .  S
C389        C390   1.410       .  A
C389        H394   1.083       .  S
C390        C391   1.413   1_554  A
C391        C392   1.405       .  A
C391        O395   1.371       .  S
C392        H396   1.084       .  S
O393        H398   0.992       .  S
O395        H399   0.992       .  S
C401        C402   1.404       .  A
C401        C406   1.403       .  A
C401        H411   1.083       .  S
C402        C407   1.483       .  S
C402        C403   1.406       .  A
C403        C404   1.396       .  A
C403        O408   1.372       .  S
C404        C405   1.408       .  A
C404        H409   1.083       .  S
C405        C406   1.415       .  A
C406        O410   1.372       .  S
C407        C412   1.406       .  A
C407        C416   1.405       .  A
O408        H424   0.992       .  S
O410        H421   0.992       .  S
C412        C413   1.399       .  A
C412        O417   1.372       .  S
C413        C414   1.406       .  A
C413        H418   1.083       .  S
C414        C415   1.411       .  A
C415        C416   1.402       .  A
C415        O419   1.372       .  S
C416        H420   1.084       .  S
O417        H422   0.992       .  S
O419        H423   0.992       .  S
C425        C426   1.407       .  A
C425        C430   1.400       .  A
C425        H435   1.083       .  S
C426        C431   1.493       .  S
C426        C427   1.413       .  A
C427        C428   1.403       .  A
C427        O432   1.372       .  S
C428        C429   1.404       .  A
C428        H433   1.084       .  S
C429        C430   1.408       .  A
C430        O434   1.372       .  S
C431        C436   1.410       .  A
C431        C440   1.408       .  A
O432        H448   0.992       .  S
O434        H445   0.992       .  S
C436        C437   1.397       .  A
C436        O441   1.372       .  S
C437        C438   1.406       .  A
C437        H442   1.084       .  S
C438        C439   1.412       .  A
C439        C440   1.406       .  A
C439        O443   1.371       .  S
C440        H444   1.083       .  S
O441        H446   0.992       .  S
O443        H447   0.992       .  S
C449        C450   1.405       .  A
C449        C454   1.407       .  A
C449        H459   1.083       .  S
C450        C455   1.491       .  S
C450        C451   1.409       .  A
C451        C452   1.399       .  A
C451        O456   1.372       .  S
C452        C453   1.409       .  A
C452        H457   1.083       .  S
C453        C454   1.413       .  A
C454        O458   1.371       .  S
C455        C460   1.408       .  A
C455        C464   1.404       .  A
O456        H472   0.992       .  S
O458        H469   0.992       .  S
C460        C461   1.405       .  A
C460        O465   1.371       .  S
C461        C462   1.408       .  A
C461        H466   1.083       .  S
C462        C463   1.415       .  A
C463        C464   1.401       .  A
C463        O467   1.372       .  S
C464        H468   1.084       .  S
O465        H470   0.992       .  S
O467        H471   0.992       .  S
C473        C474   1.407       .  A
C473        C478   1.412       .  A
C473        H483   1.083       .  S
C474        C479   1.494       .  S
C474        C475   1.406       .  A
C475        C476   1.402       .  A
C475        O480   1.373       .  S
C476        C477   1.410       .  A
C476        H481   1.083       .  S
C477        C478   1.415       .  A
C478        O482   1.371       .  S
C479        C484   1.409       .  A
C479        C488   1.403       .  A
O480        H496   0.992       .  S
O482        H493   0.992       .  S
C484        C485   1.403       .  A
C484        O489   1.371       .  S
C485        C486   1.409       .  A
C485        H490   1.083       .  S
C486        C487   1.418       .  A
C487        C488   1.408       .  A
C487        O491   1.371       .  S
C488        H492   1.083       .  S
O489        H494   0.992       .  S
O491        H495   0.992       .  S
C497        C498   1.405       .  A
C497        C502   1.402       .  A
C497        H507   1.083       .  S
C498        C503   1.467       .  S
C498        C499   1.402       .  A
C499        C500   1.385       .  A
C499        O504   1.372       .  S
C500        C501   1.404       .  A
C500        H505   1.084       .  S
C501        C502   1.409       .  A
C502        O506   1.372       .  S
C503        C508   1.403       .  A
C503        C512   1.401       .  A
O504        H520   0.992       .  S
O506        H517   0.992       .  S
C508        C509   1.398       .  A
C508        O513   1.372       .  S
C509        C510   1.408       .  A
C509        H514   1.084       .  S
C510        C511   1.408       .  A
C511        C512   1.388       .  A
C511        O515   1.372       .  S
C512        H516   1.084       .  S
O513        H518   0.992       .  S
O515        H519   0.992       .  S
C521        C522   1.400       .  A
C521        C526   1.390       .  A
C521        H531   1.083       .  S
C522        C527   1.475   1_655  S
C522        C523   1.412       .  A
C523        C524   1.396       .  A
C523        O528   1.372   1_655  S
C524        C525   1.400       .  A
C524        H529   1.084       .  S
C525        C526   1.408       .  A
C526        O530   1.371       .  S
C527        C532   1.408       .  A
C527        C536   1.404       .  A
O528        H544   0.992       .  S
O530        H541   0.991       .  S
C532        C533   1.393       .  A
C532        O537   1.373   1_455  S
C533        C534   1.404       .  A
C533        H538   1.084       .  S
C534        C535   1.408       .  A
C535        C536   1.394       .  A
C535        O539   1.372       .  S
C536        H540   1.084       .  S
O537        H542   0.992       .  S
O539        H543   0.992       .  S
C545        C546   1.401       .  A
C545        C550   1.404       .  A
C545        H555   1.084       .  S
C546        C551   1.475       .  S
C546        C547   1.403   1_565  A
C547        C548   1.395       .  A
C547        O552   1.372       .  S
C548        C549   1.409       .  A
C548        H553   1.083       .  S
C549        C550   1.415   1_545  A
C550        O554   1.373       .  S
C551        C556   1.404   1_565  A
C551        C560   1.401       .  A
O552        H568   0.992       .  S
O554        H565   0.991       .  S
C556        C557   1.398       .  A
C556        O561   1.372       .  S
C557        C558   1.409   1_545  A
C557        H562   1.083       .  S
C558        C559   1.413       .  A
C559        C560   1.399       .  A
C559        O563   1.371       .  S
C560        H564   1.084       .  S
O561        H566   0.992       .  S
O563        H567   0.992       .  S
C569        C570   1.399       .  A
C569        C574   1.395       .  A
C569        H579   1.084       .  S
C570        C575   1.472   1_565  S
C570        C571   1.406   1_565  A
C571        C572   1.400       .  A
C571        O576   1.371       .  S
C572        C573   1.406   1_545  A
C572        H577   1.084       .  S
C573        C574   1.413       .  A
C574        O578   1.372       .  S
C575        C580   1.404   1_545  A
C575        C584   1.401       .  A
O576        H592   0.992       .  S
O578        H589   0.992       .  S
C580        C581   1.396       .  A
C580        O585   1.372       .  S
C581        C582   1.405   1_565  A
C581        H586   1.084       .  S
C582        C583   1.412       .  A
C583        C584   1.400       .  A
C583        O587   1.372       .  S
C584        H588   1.084       .  S
O585        H590   0.992       .  S
O587        H591   0.992       .  S
C593        C594   1.402       .  A
C593        C598   1.401       .  A
C593        H603   1.084       .  S
C594        C599   1.485       .  S
C594        C595   1.408       .  A
C595        C596   1.403       .  A
C595        O600   1.373       .  S
C596        C597   1.409       .  A
C596        H601   1.083       .  S
C597        C598   1.416       .  A
C598        O602   1.371       .  S
C599        C604   1.408       .  A
C599        C608   1.404       .  A
O600        H616   0.992       .  S
O602        H613   0.992       .  S
C604        C605   1.400       .  A
C604        O609   1.371       .  S
C605        C606   1.406       .  A
C605        H610   1.083       .  S
C606        C607   1.413       .  A
C607        C608   1.401       .  A
C607        O611   1.372       .  S
C608        H612   1.084       .  S
O609        H614   0.992       .  S
O611        H615   0.992       .  S
C617        C618   1.404       .  A
C617        C622   1.400       .  A
C617        H627   1.084       .  S
C618        C623   1.484       .  S
C618        C619   1.408       .  A
C619        C620   1.403       .  A
C619        O624   1.372       .  S
C620        C621   1.407       .  A
C620        H625   1.084       .  S
C621        C622   1.409       .  A
C622        O626   1.371       .  S
C623        C628   1.407       .  A
C623        C632   1.404       .  A
O624        H640   0.992       .  S
O626        H637   0.992       .  S
C628        C629   1.400       .  A
C628        O633   1.372       .  S
C629        C630   1.406       .  A
C629        H634   1.083       .  S
C630        C631   1.411       .  A
C631        C632   1.401       .  A
C631        O635   1.372       .  S
C632        H636   1.084       .  S
O633        H638   0.992       .  S
O635        H639   0.992       .  S
C641        C642   1.403   1_455  A
C641        C646   1.400       .  A
C641        H651   1.084       .  S
C642        C647   1.482       .  S
C642        C643   1.406       .  A
C643        C644   1.402       .  A
C643        O648   1.372       .  S
C644        C645   1.407       .  A
C644        H649   1.083       .  S
C645        C646   1.412   1_655  A
C646        O650   1.371       .  S
C647        C652   1.406   1_665  A
C647        C656   1.403       .  A
O648        H664   0.992       .  S
O650        H661   0.992       .  S
C652        C653   1.398       .  A
C652        O657   1.372       .  S
C653        C654   1.407   1_445  A
C653        H658   1.083       .  S
C654        C655   1.413       .  A
C655        C656   1.405       .  A
C655        O659   1.372       .  S
C656        H660   1.083       .  S
O657        H662   0.992       .  S
O659        H663   0.992       .  S
C665        C666   1.405   1_655  A
C665        C670   1.405       .  A
C665        H675   1.084       .  S
C666        C671   1.485       .  S
C666        C667   1.405   1_545  A
C667        C668   1.399       .  A
C667        O672   1.372       .  S
C668        C669   1.409   1_565  A
C668        H673   1.083       .  S
C669        C670   1.414   1_455  A
C670        O674   1.371       .  S
C671        C676   1.409       .  A
C671        C680   1.400   1_445  A
O672        H688   0.992   1_565  S
O674        H685   0.992       .  S
C676        C677   1.403       .  A
C676        O681   1.371       .  S
C677        C678   1.407   1_545  A
C677        H682   1.083       .  S
C678        C679   1.418   1_455  A
C679        C680   1.400       .  A
C679        O683   1.372       .  S
C680        H684   1.084       .  S
O681        H686   0.992       .  S
O683        H687   0.992       .  S
C689        C690   1.401       .  A
C689        C694   1.391       .  A
C689        H699   1.084       .  S
C690        C695   1.466       .  S
C690        C691   1.407       .  A
C691        C692   1.392       .  A
C691        O696   1.372   1_565  S
C692        C693   1.402       .  A
C692        H697   1.084       .  S
C693        C694   1.407       .  A
C694        O698   1.372       .  S
C695        C700   1.408   1_565  A
C695        C704   1.399       .  A
O696        H712   0.992       .  S
O698        H709   0.992       .  S
C700        C701   1.394       .  A
C700        O705   1.372       .  S
C701        C702   1.399   1_545  A
C701        H706   1.084       .  S
C702        C703   1.409       .  A
C703        C704   1.392       .  A
C703        O707   1.372       .  S
C704        H708   1.084       .  S
O705        H710   0.992       .  S
O707        H711   0.992       .  S
C713        C714   1.395       .  A
C713        C718   1.391       .  A
C713        H723   1.084       .  S
C714        C719   1.461       .  S
C714        C715   1.408       .  A
C715        C716   1.394       .  A
C715        O720   1.373   1_545  S
C716        C717   1.400       .  A
C716        H721   1.084   1_545  S
C717        C718   1.414       .  A
C718        O722   1.372       .  S
C719        C724   1.401       .  A
C719        C728   1.399       .  A
O720        H736   0.992       .  S
O722        H733   0.992       .  S
C724        C725   1.392       .  A
C724        O729   1.374       .  S
C725        C726   1.407       .  A
C725        H730   1.083       .  S
C726        C727   1.412       .  A
C727        C728   1.393       .  A
C727        O731   1.371       .  S
C728        H732   1.084       .  S
O729        H734   0.992       .  S
O731        H735   0.991       .  S
C737        C738   1.404       .  A
C737        C742   1.404       .  A
C737        H747   1.084       .  S
C738        C743   1.489       .  S
C738        C739   1.409       .  A
C739        C740   1.401       .  A
C739        O744   1.373       .  S
C740        C741   1.406       .  A
C740        H745   1.082       .  S
C741        C742   1.414       .  A
C742        O746   1.371       .  S
C743        C748   1.406       .  A
C743        C752   1.407       .  A
O744        H760   0.992       .  S
O746        H757   0.992       .  S
C748        C749   1.395       .  A
C748        O753   1.372       .  S
C749        C750   1.409       .  A
C749        H754   1.083       .  S
C750        C751   1.414       .  A
C751        C752   1.408       .  A
C751        O755   1.371       .  S
C752        H756   1.083       .  S
O753        H758   0.992       .  S
O755        H759   0.992   1_655  S
C761        C762   1.402       .  A
C761        C766   1.400       .  A
C761        H771   1.084       .  S
C762        C767   1.489       .  S
C762        C763   1.409       .  A
C763        C764   1.405       .  A
C763        O768   1.372       .  S
C764        C765   1.408       .  A
C764        H769   1.083       .  S
C765        C766   1.417       .  A
C766        O770   1.372       .  S
C767        C772   1.411       .  A
C767        C776   1.402       .  A
O768        H784   0.992       .  S
O770        H781   0.992       .  S
C772        C773   1.405       .  A
C772        O777   1.371       .  S
C773        C774   1.407       .  A
C773        H778   1.083       .  S
C774        C775   1.415       .  A
C775        C776   1.399       .  A
C775        O779   1.372       .  S
C776        H780   1.084       .  S
O777        H782   0.992       .  S
O779        H783   0.992       .  S
