geometry optimzed in LAMMPS
_audit_creation_date              2020-12-01 
_audit_creation_method            'lammps2cif' 
_symmetry_space_group_name_H-M    'P1' 
_symmetry_Int_Tables_number       1 
_symmetry_cell_setting            triclinic 
loop_ 
_symmetry_equiv_pos_as_xyz 
  x,y,z 
_cell_length_a                    49.45783572 
_cell_length_b                    49.26520192183735 
_cell_length_c                    48.98745657089394 
_cell_angle_alpha                 89.75989493202613 
_cell_angle_beta                  90.02980355248863 
_cell_angle_gamma                 90.2005361532576 
loop_ 
_atom_site_label 
_atom_site_type_symbol 
_atom_site_fract_x 
_atom_site_fract_y 
_atom_site_fract_z 
_atom_site_charge 
O1          O  0.98871616  0.35552572  0.94929607    -0.86200
O2          O  0.95642010  0.30946296  0.94147837    -0.83300
C3          C  0.96263503  0.29618348  0.96238041     0.97300
O4          O  0.95190964  0.30373896  0.98438573    -0.83300
O5          O  0.95545742  0.34081540  0.02383013    -0.85900
C6          C  0.96697955  0.36347957  0.02938082     1.01800
O7          O  0.96157420  0.38485774  0.01603778    -0.78700
O8          O  0.97859532  0.39687573  0.96392855    -0.78900
C9          C  0.99551761  0.37976726  0.95452362     1.01700
O10         O  0.95076296  0.38590890  0.92304603    -0.86200
O11         O  0.91267551  0.34711700  0.92820823    -0.83300
C12         C  0.89204850  0.34411544  0.94323157     0.97300
O13         O  0.89420186  0.33256235  0.96710139    -0.83300
O14         O  0.90022286  0.35567972  0.01724778    -0.85900
C15         C  0.89496718  0.38044349  0.01835237     1.01700
O16         O  0.90795107  0.39720415  0.00371171    -0.78700
O17         O  0.92248792  0.40702038  0.94815130    -0.78900
C18         C  0.93300978  0.40350414  0.92494001     1.01700
Cr19       Cr  0.95071112  0.34975712  0.93936476     1.93700
Cr20       Cr  0.92624282  0.33443311  0.99516423     1.93200
Cr21       Cr  0.94227093  0.39374378  0.98206312     1.39100
O22         O  0.94012257  0.35914459  0.97301788    -1.24000
O23         O  0.81812382  0.42162307  0.77013931    -0.86200
O24         O  0.81359150  0.44749770  0.81868550    -0.83300
C25         C  0.79177610  0.45636842  0.80841827     0.97300
O26         O  0.77064156  0.44455208  0.81682386    -0.83300
O27         O  0.73517237  0.40034010  0.81879322    -0.85900
C28         C  0.73211248  0.39389714  0.79390100     1.01800
O29         O  0.75252942  0.39264150  0.77920923    -0.78700
O30         O  0.80168255  0.38167009  0.75937630    -0.78900
C31         C  0.81289201  0.40382086  0.75267115     1.01700
O32         O  0.84346253  0.37660600  0.79511114    -0.86200
O33         O  0.83628047  0.39705334  0.84451391    -0.83300
C34         C  0.82267472  0.39949893  0.86593230     0.97300
O35         O  0.80212227  0.41546410  0.86526915    -0.83300
O36         O  0.76716614  0.37532450  0.86023069    -0.85900
C37         C  0.75769779  0.35438904  0.84918436     1.01700
O38         O  0.75943736  0.35154581  0.82329862    -0.78700
O39         O  0.81182996  0.34594132  0.80265471    -0.78900
C40         C  0.83607703  0.35223819  0.79738064     1.01700
Cr41       Cr  0.82565994  0.41025202  0.80804099     1.93700
Cr42       Cr  0.77068633  0.40932133  0.83860985     1.93200
Cr43       Cr  0.78176638  0.36953189  0.79267779     1.39100
O44         O  0.79304253  0.39561278  0.81350994    -1.24000
O45         O  0.77988338  0.82172234  0.37793380    -0.86200
O46         O  0.78706772  0.80416594  0.42923415    -0.83300
C47         C  0.79418955  0.79125010  0.45005052     0.97300
O48         O  0.81818093  0.78140383  0.44985384    -0.83300
O49         O  0.81589352  0.74080201  0.40744692    -0.85900
C50         C  0.81495511  0.73163121  0.38308714     1.01800
O51         O  0.82485377  0.74536310  0.36376082    -0.78700
O52         O  0.78723009  0.78349029  0.35585634    -0.78900
C53         C  0.77206693  0.80272184  0.36264196     1.01700
O54         O  0.83134931  0.84696871  0.37858374    -0.86200
O55         O  0.84147428  0.83049133  0.42924047    -0.83300
C56         C  0.86547597  0.82470036  0.42205048     0.97300
O57         O  0.87102227  0.79972235  0.42214215    -0.83300
O58         O  0.86928005  0.75535230  0.38932975    -0.85900
C59         C  0.87892800  0.76431023  0.36699213     1.01700
O60         O  0.86694471  0.78385767  0.35537370    -0.78700
O61         O  0.82675275  0.82248620  0.34198808    -0.78900
C62         C  0.82976208  0.84519781  0.35332648     1.01700
Cr63       Cr  0.81114196  0.82361238  0.40332590     1.93700
Cr64       Cr  0.84227546  0.77115476  0.41616397     1.93200
Cr65       Cr  0.82672457  0.78466578  0.35703520     1.39100
O66         O  0.82629707  0.79309934  0.39202998    -1.24000
O67         O  0.96523014  0.99352139  0.34601974    -0.86200
O68         O  0.94169772  0.95327092  0.31232301    -0.83300
C69         C  0.96205732  0.95790456  0.29792924     0.97300
O70         O  0.98301542  0.94552331  0.30552947    -0.83300
O71         O  0.02473775  0.93287490  0.33828016    -0.85900
C72         C  0.03638305  0.94695386  0.35657385     1.01800
O73         O  0.02464149  0.95423337  0.37798348    -0.78700
O74         O  0.98375382  0.98849145  0.38704177    -0.78900
C75         C  0.97648169  0.00340198  0.36705604     1.01700
O76         O  0.93376347  0.97455922  0.38894828    -0.86200
O77         O  0.92304340  0.92749496  0.36107498    -0.83300
C78         C  0.92868382  0.90344892  0.35425536     0.97300
O79         O  0.94862821  0.89928036  0.33756676    -0.83300
O80         O  0.99559573  0.88890665  0.36420211    -0.85900
C81         C  0.99822396  0.88919565  0.38981578     1.01700
O82         O  0.99629842  0.91094297  0.40299128    -0.78700
O83         O  0.95429426  0.94374225  0.41225563    -0.78900
C84         C  0.93702367  0.96216554  0.41093741     1.01700
Cr85       Cr  0.94352639  0.96041097  0.35232298     1.93700
Cr86       Cr  0.98645061  0.91834670  0.33734753     1.93200
Cr87       Cr  0.98866081  0.94883280  0.39260935     1.39100
O88         O  0.97364051  0.94225194  0.36081353    -1.24000
O89         O  0.37924856  0.92063556  0.97777755    -0.86200
O90         O  0.32790990  0.93742591  0.96877992    -0.83300
C91         C  0.30911569  0.95349354  0.96233493     0.97300
O92         O  0.31019307  0.96470619  0.93860637    -0.83300
O93         O  0.34734650  0.00647822  0.94467522    -0.85900
C94         C  0.36989260  0.01708264  0.95121533     1.01800
O95         O  0.39191768  0.00537871  0.94504341    -0.78700
O96         O  0.39877357  0.96091312  0.97827222    -0.78900
C97         C  0.39263078  0.93876988  0.98969357     1.01700
O98         O  0.38484583  0.90286813  0.92351001    -0.86200
O99         O  0.33360906  0.91668340  0.91160886    -0.83300
C100        C  0.34240466  0.92416623  0.88846797     0.97300
O101        O  0.34342367  0.94966006  0.88498660    -0.83300
O102        O  0.37163923  0.99666613  0.89246631    -0.85900
C103        C  0.39501733  0.98941981  0.88492963     1.01700
O104        O  0.40752459  0.97186254  0.89883749    -0.78700
O105        O  0.41878599  0.92909989  0.93452526    -0.78900
C106        C  0.40971175  0.90618582  0.92717186     1.01700
Cr107      Cr  0.35682476  0.92215438  0.94445210     1.93700
Cr108      Cr  0.34423573  0.97707734  0.91639959     1.93200
Cr109      Cr  0.40144412  0.96603794  0.93855461     1.39100
O110        O  0.36756034  0.95533274  0.93382131    -1.24000
O111        O  0.40598186  0.75379181  0.83418781    -0.86200
O112        O  0.45175590  0.77887512  0.81790572    -0.83300
C113        C  0.46669954  0.78701374  0.79862236     0.97300
O114        O  0.45908760  0.80741528  0.78392308    -0.83300
O115        O  0.42776724  0.79109520  0.74123964    -0.85900
C116        C  0.41019145  0.77499357  0.73177828     1.01800
O117        O  0.38901981  0.76980800  0.74496941    -0.78700
O118        O  0.39911071  0.74047356  0.79231820    -0.78900
C119        C  0.40501670  0.73498266  0.81684224     1.01700
O120        O  0.37984408  0.80547011  0.84063931    -0.86200
O121        O  0.42706148  0.83143686  0.83273567    -0.83300
C122        C  0.41299128  0.85000183  0.82214333     0.97300
O123        O  0.41061942  0.84904929  0.79646917    -0.83300
O124        O  0.38554482  0.82961930  0.75156662    -0.85900
C125        C  0.36088290  0.82416778  0.75668687     1.01700
O126        O  0.35518186  0.80537372  0.77345139    -0.78700
O127        O  0.35891651  0.77311803  0.81910157    -0.78900
C128        C  0.35878779  0.79216907  0.83612684     1.01700
Cr129      Cr  0.41560720  0.79270676  0.82861140     1.93700
Cr130      Cr  0.42036746  0.81803788  0.77073690     1.93200
Cr131      Cr  0.37787784  0.77371562  0.78326670     1.39100
O132        O  0.40500962  0.79451711  0.79367715    -1.24000
O133        O  0.11877691  0.42299485  0.94367458    -0.86200
O134        O  0.16966456  0.41806783  0.92584241    -0.83300
C135        C  0.16300829  0.42509117  0.90197964     0.97300
O136        O  0.16809195  0.44945845  0.89539914    -0.83300
O137        O  0.14448933  0.49858713  0.89496282    -0.85900
C138        C  0.11915460  0.49304756  0.89351560     1.01800
O139        O  0.10711787  0.48291022  0.91387463    -0.78700
O140        O  0.09771277  0.45640552  0.96281617    -0.78900
C141        C  0.09735333  0.43311106  0.95251938     1.01700
O142        O  0.13746194  0.44745616  0.99383101    -0.86200
O143        O  0.18842448  0.44478236  0.97569090    -0.83300
C144        C  0.20854595  0.45693028  0.96579134     0.97300
O145        O  0.20698110  0.46763789  0.94185261    -0.83300
O146        O  0.17844277  0.51681273  0.94225857    -0.85900
C147        C  0.15858985  0.53279407  0.94569639     1.01700
O148        O  0.13526345  0.52396600  0.94098550    -0.78700
O149        O  0.13530352  0.49167926  0.98803124    -0.78900
C150        C  0.13546490  0.47118133  0.00353367     1.01700
Cr151      Cr  0.15355353  0.43563631  0.95849673     1.93700
Cr152      Cr  0.17366589  0.48189210  0.92011627     1.93200
Cr153      Cr  0.12106535  0.48735252  0.95099717     1.39100
O154        O  0.14989022  0.46827537  0.94322320    -1.24000
O155        O  0.13843577  0.32057449  0.84824041    -0.86200
O156        O  0.08738735  0.32961385  0.83731608    -0.83300
C157        C  0.09318443  0.35398272  0.83095391     0.97300
O158        O  0.09047502  0.35991592  0.80595051    -0.83300
O159        O  0.11933938  0.36137613  0.75855917    -0.85900
C160        C  0.14196523  0.37121756  0.76592933     1.01800
O161        O  0.15519476  0.35894299  0.78443057    -0.78700
O162        O  0.17275085  0.31709655  0.82092102    -0.78900
C163        C  0.16322329  0.31999589  0.84459456     1.01700
O164        O  0.13831744  0.26913980  0.82145460    -0.86200
O165        O  0.08546639  0.27561238  0.81000226    -0.83300
C166        C  0.06434813  0.28320669  0.79817941     0.97300
O167        O  0.06356270  0.30721718  0.78813534    -0.83300
O168        O  0.10182103  0.30770280  0.74324750    -0.85900
C169        C  0.12521836  0.30851756  0.73212874     1.01700
O170        O  0.14465410  0.31842117  0.74533658    -0.78700
O171        O  0.15511933  0.27893207  0.78109635    -0.78900
C172        C  0.15094432  0.26229613  0.80014124     1.01700
Cr173      Cr  0.11269148  0.29999057  0.82685287     1.93700
Cr174      Cr  0.09493440  0.33263562  0.77572459     1.93200
Cr175      Cr  0.15435750  0.31839770  0.78417019     1.39100
O176        O  0.12066689  0.31659409  0.79550266    -1.24000
O177        O  0.41055993  0.50595654  0.65304272    -0.86200
O178        O  0.43480656  0.52380077  0.69813806    -0.83300
C179        C  0.45466228  0.53063060  0.71253850     0.97300
O180        O  0.46746512  0.55262794  0.70627170    -0.83300
O181        O  0.50324695  0.53774268  0.66648476    -0.85900
C182        C  0.50946671  0.52577857  0.64457557     1.01800
O183        O  0.49415810  0.52735080  0.62417691    -0.78700
O184        O  0.44995749  0.49752184  0.63470664    -0.78900
C185        C  0.42803867  0.48944166  0.64457330     1.01700
O186        O  0.39768313  0.56048765  0.63824260    -0.86200
O187        O  0.41682234  0.58035008  0.68415116    -0.83300
C188        C  0.42538173  0.60052221  0.67039886     0.97300
O189        O  0.45052277  0.60052243  0.66530982    -0.83300
O190        O  0.49135947  0.58317701  0.63146382    -0.85900
C191        C  0.48256017  0.58271445  0.60699119     1.01700
O192        O  0.46195806  0.56873831  0.60125097    -0.78700
O193        O  0.41678441  0.53618894  0.60650905    -0.78900
C194        C  0.39832416  0.55188041  0.61444029     1.01700
Cr195      Cr  0.41753178  0.54319650  0.66763891     1.93700
Cr196      Cr  0.47564593  0.56767445  0.66708739     1.93200
Cr197      Cr  0.45510679  0.53355511  0.61916346     1.39100
O198        O  0.44964027  0.54804255  0.65132379    -1.24000
O199        O  0.26497383  0.69816281  0.61908594    -0.86200
O200        O  0.28447067  0.69308535  0.56797087    -0.83300
C201        C  0.29458152  0.70543373  0.54782042     0.97300
O202        O  0.31849490  0.71566561  0.54974901    -0.83300
O203        O  0.32042345  0.76545818  0.57767128    -0.85900
C204        C  0.31758484  0.78134996  0.59789591     1.01800
O205        O  0.32028870  0.77185550  0.62139067    -0.78700
O206        O  0.27175657  0.74242026  0.62184582    -0.78900
C207        C  0.25607191  0.72210735  0.62252162     1.01700
O208        O  0.31379104  0.67304187  0.64056912    -0.86200
O209        O  0.33311197  0.66535818  0.59027744    -0.83300
C210        C  0.35688681  0.67195835  0.59722704     0.97300
O211        O  0.36407296  0.69599728  0.59111582    -0.83300
O212        O  0.36552301  0.74507174  0.61272457    -0.85900
C213        C  0.36614571  0.73903171  0.63810150     1.01700
O214        O  0.34493384  0.73104965  0.65011418    -0.78700
O215        O  0.29522809  0.70743454  0.66019697    -0.78900
C216        C  0.30528059  0.68428448  0.66176545     1.01700
Cr217      Cr  0.30034725  0.68469359  0.60432266     1.93700
Cr218      Cr  0.34031498  0.72921981  0.58356463     1.93200
Cr219      Cr  0.30851835  0.73679166  0.63598176     1.39100
O220        O  0.31609696  0.71705162  0.60728976    -1.24000
O221        O  0.65116086  0.40404181  0.52072753    -0.86200
O222        O  0.69599860  0.42844664  0.54189425    -0.83300
C223        C  0.70983618  0.44793511  0.55116584     0.97300
O224        O  0.70121973  0.46103996  0.57200275    -0.83300
O225        O  0.66519212  0.49780535  0.55068128    -0.85900
C226        C  0.64518289  0.50442528  0.53597902     1.01800
O227        O  0.62393465  0.49025717  0.53632722    -0.78700
O228        O  0.63647240  0.44397960  0.50836034    -0.78900
C229        C  0.64634251  0.42131262  0.50232017     1.01700
O230        O  0.63063747  0.39568745  0.57523581    -0.86200
O231        O  0.67775482  0.41353008  0.59681632    -0.83300
C232        C  0.66291795  0.42174545  0.61600535     0.97300
O233        O  0.65641806  0.44655942  0.61483705    -0.83300
O234        O  0.62596311  0.48768106  0.59336473    -0.85900
C235        C  0.60205442  0.47823224  0.59222220     1.01700
O236        O  0.59711432  0.45909954  0.57601870    -0.78700
O237        O  0.60299849  0.41308384  0.54546746    -0.78900
C238        C  0.60755316  0.39691529  0.56495341     1.01700
Cr239      Cr  0.66295868  0.41267232  0.55888455     1.93700
Cr240      Cr  0.66180661  0.47110489  0.58164570     1.93200
Cr241      Cr  0.61747626  0.45111726  0.54272248     1.39100
O242        O  0.64762823  0.44531156  0.56074105    -1.24000
O243        O  0.61695222  0.25425056  0.68042539    -0.86200
O244        O  0.56594453  0.27172045  0.68958818    -0.83300
C245        C  0.54682277  0.27913162  0.70458706     0.97300
O246        O  0.54940803  0.30175653  0.71756397    -0.83300
O247        O  0.57823338  0.29008585  0.76543820    -0.85900
C248        C  0.59840997  0.28125344  0.77888093     1.01800
O249        O  0.62171748  0.28183380  0.76835950    -0.78700
O250        O  0.62337199  0.24714602  0.72435234    -0.78900
C251        C  0.62169943  0.23833679  0.70031775     1.01700
O252        O  0.63258304  0.31022210  0.66974865    -0.86200
O253        O  0.58167043  0.32695911  0.67373244    -0.83300
C254        C  0.59239271  0.34812561  0.68358668     0.97300
O255        O  0.59182109  0.34962477  0.70934231    -0.83300
O256        O  0.61405282  0.33574348  0.75866006    -0.85900
C257        C  0.63912339  0.33600947  0.75300001     1.01700
O258        O  0.64756540  0.32143200  0.73414997    -0.78700
O259        O  0.65752331  0.28509824  0.69579394    -0.78900
C260        C  0.65535551  0.30246213  0.67697525     1.01700
Cr261      Cr  0.59938820  0.29118276  0.68063528     1.93700
Cr262      Cr  0.58399894  0.31816139  0.73563394     1.93200
Cr263      Cr  0.63530220  0.28457864  0.72991263     1.39100
O264        O  0.60549495  0.29704621  0.71584773    -1.24000
O265        O  0.51498744  0.65208191  0.43045787    -0.86200
O266        O  0.55168376  0.69320616  0.43580493    -0.83300
C267        C  0.54792939  0.70088480  0.46012679     0.97300
O268        O  0.55905599  0.68741657  0.47940257    -0.83300
O269        O  0.56039393  0.63870796  0.50967585    -0.85900
C270        C  0.53833055  0.62494212  0.51016366     1.01800
O271        O  0.52796142  0.61635314  0.48815094    -0.78700
O272        O  0.52161859  0.60962231  0.43072379    -0.78900
C273        C  0.50557856  0.62853725  0.43402438     1.01700
O274        O  0.55688866  0.62093354  0.39785591    -0.86200
O275        O  0.59359433  0.65786834  0.41037000    -0.83300
C276        C  0.61463447  0.66007017  0.42496012     0.97300
O277        O  0.61225656  0.66658380  0.45019995    -0.83300
O278        O  0.60955810  0.62193617  0.48051347    -0.85900
C279        C  0.60219810  0.59792702  0.48552019     1.01700
O280        O  0.57775765  0.59216956  0.48386155    -0.78700
O281        O  0.57454014  0.59289297  0.42772380    -0.78900
C282        C  0.57022902  0.59954150  0.40327770     1.01700
Cr283      Cr  0.55483795  0.65511183  0.42106523     1.93700
Cr284      Cr  0.58368001  0.65350840  0.47796833     1.93200
Cr285      Cr  0.55111616  0.60511254  0.45721430     1.39100
O286        O  0.56346864  0.63831297  0.45241852    -1.24000
O287        O  0.69776044  0.56892225  0.26021500    -0.86200
O288        O  0.69490882  0.54917486  0.31086728    -0.83300
C289        C  0.71665239  0.53695648  0.30482411     0.97300
O290        O  0.73780163  0.54729819  0.31491124    -0.83300
O291        O  0.77787713  0.58648928  0.31326030    -0.85900
C292        C  0.78496041  0.58896626  0.28843624     1.01800
O293        O  0.76735093  0.59516663  0.27100347    -0.78700
O294        O  0.71893032  0.60526189  0.24534709    -0.78900
C295        C  0.70514772  0.58392581  0.24091497     1.01700
O296        O  0.67556869  0.61968489  0.27582955    -0.86200
O297        O  0.67635026  0.60469512  0.32892584    -0.83300
C298        C  0.68704391  0.60327571  0.35224591     0.97300
O299        O  0.70650798  0.58630986  0.35540473    -0.83300
O300        O  0.74629305  0.62194019  0.34631041    -0.85900
C301        C  0.75821476  0.64062469  0.33341607     1.01700
O302        O  0.75878107  0.64025937  0.30745246    -0.78700
O303        O  0.70921676  0.64741097  0.28370264    -0.78900
C304        C  0.68511720  0.64340559  0.27642375     1.01700
Cr305      Cr  0.68844836  0.58612794  0.29503746     1.93700
Cr306      Cr  0.74025954  0.58543570  0.33054720     1.93200
Cr307      Cr  0.73761700  0.62027113  0.27855086     1.39100
O308        O  0.72217684  0.59764714  0.30142840    -1.24000
O309        O  0.94255857  0.10707627  0.42799915    -0.86200
O310        O  0.92350676  0.15571574  0.41807738    -0.83300
C311        C  0.89975136  0.14989584  0.42604122     0.97300
O312        O  0.89413243  0.15657771  0.45037761    -0.83300
O313        O  0.89609143  0.13805908  0.50178605    -0.85900
C314        C  0.89365589  0.11236906  0.49897546     1.01800
O315        O  0.91266669  0.09888117  0.48834034    -0.78700
O316        O  0.96199457  0.08657787  0.46165323    -0.78900
C317        C  0.95431904  0.08670207  0.43712010     1.01700
O318        O  0.99314191  0.12824045  0.45053876    -0.86200
O319        O  0.97402136  0.17823650  0.44278189    -0.83300
C320        C  0.96445883  0.19932067  0.45319591     0.97300
O321        O  0.94080719  0.19819581  0.46409527    -0.83300
O322        O  0.94300766  0.17304251  0.51528421    -0.85900
C323        C  0.94718849  0.15453813  0.53295974     1.01700
O324        O  0.94127699  0.13043643  0.52694997    -0.78700
O325        O  0.98725532  0.12604697  0.49507222    -0.78900
C326        C  0.00266207  0.12588245  0.47462391     1.01700
Cr327      Cr  0.95717571  0.14246245  0.43716245     1.93700
Cr328      Cr  0.91994787  0.16551763  0.48165759     1.93200
Cr329      Cr  0.95013548  0.11254795  0.49135451     1.39100
O330        O  0.94270882  0.14069303  0.47013262    -1.24000
O331        O  0.82719449  0.13091350  0.32558736    -0.86200
O332        O  0.82664810  0.07653454  0.33318052    -0.83300
C333        C  0.82120401  0.08381246  0.35721831     0.97300
O334        O  0.79615941  0.08325760  0.36292190    -0.83300
O335        O  0.74371914  0.10213161  0.35853569    -0.85900
C336        C  0.74605601  0.12752848  0.36274233     1.01800
O337        O  0.75809680  0.14232671  0.34584304    -0.78700
O338        O  0.79536616  0.15725284  0.30964849    -0.78900
C339        C  0.81757778  0.15410543  0.32176448     1.01700
O340        O  0.81142198  0.12529184  0.27051060    -0.86200
O341        O  0.80385927  0.07078805  0.27851867    -0.83300
C342        C  0.79378090  0.04867896  0.28670499     0.97300
O343        O  0.78479257  0.04704543  0.31130571    -0.83300
O344        O  0.73589276  0.07284821  0.30676246    -0.85900
C345        C  0.72135239  0.09229866  0.29821314     1.01700
O346        O  0.72714935  0.11644170  0.30434919    -0.78700
O347        O  0.76738338  0.12906226  0.26773219    -0.78900
C348        C  0.79052794  0.13212519  0.25754343     1.01700
Cr349      Cr  0.81497328  0.10073359  0.30271411     1.93700
Cr350      Cr  0.76643849  0.07753450  0.33391916     1.93200
Cr351      Cr  0.76318449  0.13388711  0.30733663     1.39100
O352        O  0.78114137  0.10397525  0.31437032    -1.24000
O353        O  0.68153187  0.64494298  0.13357852    -0.86200
O354        O  0.66948993  0.66306007  0.08370589    -0.83300
C355        C  0.64615284  0.67034550  0.09170378     0.97300
O356        O  0.64211215  0.69562323  0.09162573    -0.83300
O357        O  0.64715292  0.74007439  0.12399849    -0.85900
C358        C  0.63729867  0.73107756  0.14621151     1.01800
O359        O  0.64893519  0.71117768  0.15761402    -0.78700
O360        O  0.68626522  0.66937704  0.17024580    -0.78900
C361        C  0.68253213  0.64670071  0.15894087     1.01700
O362        O  0.73420881  0.66813162  0.13172775    -0.86200
O363        O  0.72535177  0.68655537  0.08125228    -0.83300
C364        C  0.71873876  0.70061502  0.06101310     0.97300
O365        O  0.69531788  0.71170442  0.06195100    -0.83300
O366        O  0.70030758  0.75179819  0.10428998    -0.85900
C367        C  0.70219448  0.76085544  0.12858611     1.01700
O368        O  0.69388655  0.74669339  0.14851822    -0.78700
O369        O  0.72868048  0.70534098  0.15609865    -0.78900
C370        C  0.74318831  0.68623121  0.14750101     1.01700
Cr371      Cr  0.70145590  0.66810966  0.10808541     1.93700
Cr372      Cr  0.67261921  0.72258289  0.09655451     1.93200
Cr373      Cr  0.68907236  0.70737393  0.15525191     1.39100
O374        O  0.68830504  0.69943517  0.12013108    -1.24000
O375        O  0.57971224  0.52154174  0.12998378    -0.86200
O376        O  0.58586859  0.57032376  0.15285920    -0.83300
C377        C  0.58075814  0.59402058  0.16021133     0.97300
O378        O  0.56186565  0.59748246  0.17810471    -0.83300
O379        O  0.52033010  0.59782334  0.14339028    -0.85900
C380        C  0.50611710  0.58900409  0.12406607     1.01800
O381        O  0.49963484  0.56405470  0.12297304    -0.78700
O382        O  0.54541795  0.53779678  0.10700443    -0.78900
C383        C  0.56868630  0.52746733  0.10731994     1.01700
O384        O  0.55994632  0.50109604  0.18156301    -0.86200
O385        O  0.56926986  0.54929567  0.20606698    -0.83300
C386        C  0.54836543  0.54292746  0.21960614     0.97300
O387        O  0.52709630  0.55524890  0.21262585    -0.83300
O388        O  0.48472239  0.56332500  0.17405685    -0.85900
C389        C  0.47730749  0.53898386  0.16913390     1.01700
O390        O  0.49554952  0.52196944  0.16710797    -0.78700
O391        O  0.53658276  0.49487596  0.14443206    -0.78900
C392        C  0.54907725  0.48544825  0.16482282     1.01700
Cr393      Cr  0.57195645  0.53664337  0.16758489     1.93700
Cr394      Cr  0.52483439  0.57670866  0.17723889     1.93200
Cr395      Cr  0.52004806  0.53080780  0.13688593     1.39100
O396        O  0.53932674  0.54860728  0.15981242    -1.24000
O397        O  0.07796334  0.62518047  0.10368212    -0.86200
O398        O  0.09051891  0.67554782  0.08574623    -0.83300
C399        C  0.11301038  0.66657820  0.07718294     0.97300
O400        O  0.11538591  0.66513957  0.05147748    -0.83300
O401        O  0.10420942  0.63703227  0.00379064    -0.85900
C402        C  0.11346316  0.61384178  0.00986665     1.01800
O403        O  0.10373143  0.60185127  0.03039787    -0.78700
O404        O  0.07332113  0.59003226  0.07667854    -0.78900
C405        C  0.07844333  0.60005854  0.09981616     1.01700
O406        O  0.02433503  0.63012866  0.08600977    -0.86200
O407        O  0.03314199  0.68062760  0.06690949    -0.83300
C408        C  0.04092289  0.70027580  0.05253532     0.97300
O409        O  0.06421195  0.69870873  0.04135729    -0.83300
O410        O  0.05172926  0.66051904  0.00003716    -0.85900
C411        C  0.04489658  0.63735599  0.99069926     1.01700
O412        O  0.05359713  0.61559868  0.00170651    -0.78700
O413        O  0.02611155  0.60520398  0.04875908    -0.78900
C414        C  0.01401909  0.61337987  0.06977929     1.01700
Cr415      Cr  0.05747297  0.65233144  0.08282014     1.93700
Cr416      Cr  0.08283973  0.66412910  0.02639495     1.93200
Cr417      Cr  0.06468589  0.60611570  0.04013239     1.39100
O418        O  0.06763362  0.64057414  0.04978322    -1.24000
O419        O  0.18132993  0.63891349  0.18908245    -0.86200
O420        O  0.17363677  0.58753727  0.17185864    -0.83300
C421        C  0.18155597  0.59521761  0.14861225     0.97300
O422        O  0.20590471  0.58991532  0.14315617    -0.83300
O423        O  0.25602586  0.60896977  0.14530543    -0.85900
C424        C  0.25301481  0.63480554  0.14498943     1.01800
O425        O  0.24576031  0.64706985  0.16627278    -0.78700
O426        O  0.21461834  0.65881407  0.21032007    -0.78900
C427        C  0.19177889  0.65989819  0.19905348     1.01700
O428        O  0.19936429  0.62023918  0.24043665    -0.86200
O429        O  0.19645561  0.56851278  0.22428529    -0.83300
C430        C  0.20830574  0.54772663  0.21557357     0.97300
O431        O  0.21894010  0.54837369  0.19147089    -0.83300
O432        O  0.26947380  0.57207871  0.19236867    -0.85900
C433        C  0.28631777  0.59017582  0.19939304     1.01700
O434        O  0.27982704  0.61475890  0.19828104    -0.78700
O435        O  0.24351724  0.61968656  0.24148935    -0.78900
C436        C  0.22121322  0.62292284  0.25345768     1.01700
Cr437      Cr  0.19013514  0.60349035  0.20531800     1.93700
Cr438      Cr  0.23626301  0.58082182  0.16967263     1.93200
Cr439      Cr  0.24451136  0.63266014  0.20332821     1.39100
O440        O  0.22391877  0.60522338  0.19295163    -1.24000
O441        O  0.87297180  0.54578261  0.01949950    -0.86200
O442        O  0.82223841  0.54746687  0.03920594    -0.83300
C443        C  0.80254179  0.53592429  0.05062665     0.97300
O444        O  0.80532239  0.52660373  0.07529576    -0.83300
O445        O  0.83212073  0.47672659  0.07634292    -0.85900
C446        C  0.85133593  0.46044186  0.07182620     1.01800
O447        O  0.87513057  0.46948426  0.07029581    -0.78700
O448        O  0.87435007  0.50147295  0.02471141    -0.78900
C449        C  0.87600121  0.52209932  0.00978322     1.01700
O450        O  0.89213354  0.56939969  0.07037208    -0.86200
O451        O  0.84184665  0.57517073  0.08890311    -0.83300
C452        C  0.85005912  0.56948365  0.11273811     0.97300
O453        O  0.84862526  0.54473961  0.11956258    -0.83300
O454        O  0.87148022  0.49432275  0.11827038    -0.85900
C455        C  0.89720363  0.49826132  0.11658828     1.01700
O456        O  0.90688152  0.51013679  0.09626420    -0.78700
O457        O  0.91322080  0.53736080  0.04919415    -0.78900
C458        C  0.91373997  0.55962876  0.06161739     1.01700
Cr459      Cr  0.85733532  0.55725867  0.05554546     1.93700
Cr460      Cr  0.84007631  0.51206004  0.09588084     1.93200
Cr461      Cr  0.89016314  0.50582247  0.06067172     1.39100
O462        O  0.86183532  0.52469861  0.07040817    -1.24000
O463        O  0.88615856  0.74019410  0.20634982    -0.86200
O464        O  0.93749491  0.72458002  0.19817299    -0.83300
C465        C  0.95937598  0.71515671  0.20700762     0.97300
O466        O  0.95959619  0.69111674  0.21737046    -0.83300
O467        O  0.93710491  0.69273599  0.26919404    -0.85900
C468        C  0.91923070  0.69700978  0.28717283     1.01800
O469        O  0.89559427  0.68888261  0.28262796    -0.78700
O470        O  0.88702382  0.73475726  0.25110785    -0.78900
C471        C  0.88413212  0.74960294  0.23039812     1.01700
O472        O  0.86774998  0.68907812  0.18386443    -0.86200
O473        O  0.91844053  0.67328144  0.17345035    -0.83300
C474        C  0.91434543  0.64893712  0.18094109     0.97300
O475        O  0.92049705  0.64318296  0.20537318    -0.83300
O476        O  0.90311757  0.64286012  0.25735389    -0.85900
C477        C  0.87750641  0.64011995  0.25400700     1.01700
O478        O  0.86369032  0.65972091  0.24543552    -0.78700
O479        O  0.84844894  0.70634816  0.21961545    -0.78900
C480        C  0.84683628  0.69647360  0.19606143     1.01700
Cr481      Cr  0.90274426  0.70563687  0.19275628     1.93700
Cr482      Cr  0.92899385  0.66883458  0.23642499     1.93200
Cr483      Cr  0.87578305  0.69702545  0.24814586     1.39100
O484        O  0.90289041  0.69066882  0.22570943    -1.24000
O485        O  0.43231408  0.93071388  0.11461374    -0.86200
O486        O  0.42570266  0.91872711  0.16761615    -0.83300
C487        C  0.43145905  0.89446739  0.16151808     0.97300
O488        O  0.45573320  0.88752016  0.16533613    -0.83300
O489        O  0.50820316  0.88736847  0.14873277    -0.85900
C490        C  0.50531726  0.88378464  0.12297991     1.01800
O491        O  0.49494691  0.90206094  0.10871086    -0.78700
O492        O  0.46726532  0.94572826  0.09204616    -0.78900
C493        C  0.44360532  0.93635948  0.09249552     1.01700
O494        O  0.45474562  0.98280841  0.12697792    -0.86200
O495        O  0.45227663  0.97068851  0.18058220    -0.83300
C496        C  0.45986545  0.96121657  0.20312625     0.97300
O497        O  0.46753869  0.93622839  0.20417784    -0.83300
O498        O  0.51869467  0.93702049  0.18189232    -0.85900
C499        C  0.53627455  0.94220325  0.16385266     1.01700
O500        O  0.53173771  0.93593073  0.13928273    -0.78700
O501        O  0.49911637  0.97909922  0.12627479    -0.78900
C502        C  0.47800032  0.99275834  0.12260686     1.01700
Cr503      Cr  0.44338006  0.94970030  0.14774301     1.93700
Cr504      Cr  0.48651659  0.91324598  0.17386570     1.93200
Cr505      Cr  0.49695861  0.94024657  0.11877707     1.39100
O506        O  0.47585526  0.93481424  0.14711438    -1.24000
O507        O  0.31702668  0.83934304  0.13292772    -0.86200
O508        O  0.33929645  0.83242640  0.08099266    -0.83300
C509        C  0.35962890  0.82296744  0.09290576     0.97300
O510        O  0.36097183  0.79737649  0.09289580    -0.83300
O511        O  0.34726057  0.75050216  0.11591487    -0.85900
C512        C  0.34605528  0.75297730  0.14152840     1.01800
O513        O  0.32666402  0.76610213  0.15227518    -0.78700
O514        O  0.29208026  0.81083026  0.15641856    -0.78900
C515        C  0.30426306  0.83318341  0.15458970     1.01700
O516        O  0.26663132  0.82948678  0.11068602    -0.86200
O517        O  0.28553750  0.81610061  0.06140886    -0.83300
C518        C  0.29309921  0.79881734  0.04405100     0.97300
O519        O  0.31492342  0.78549394  0.04848789    -0.83300
O520        O  0.30367203  0.73965994  0.07914496    -0.85900
C521        C  0.28990147  0.72854947  0.09803927     1.01700
O522        O  0.28693752  0.74023302  0.12053706    -0.78700
O523        O  0.25528611  0.78734807  0.11884459    -0.78900
C524        C  0.24885627  0.81188318  0.11400957     1.01700
Cr525      Cr  0.30306998  0.82623706  0.09687348     1.93700
Cr526      Cr  0.33009730  0.77063462  0.08498705     1.93200
Cr527      Cr  0.29167603  0.77723186  0.13446981     1.39100
O528        O  0.30806506  0.79099313  0.10542006    -1.24000
O529        O  0.66865728  0.11797642  0.72381460    -0.86200
O530        O  0.67207793  0.09646195  0.67542528    -0.83300
C531        C  0.68230645  0.09560938  0.65224352     0.97300
O532        O  0.70444935  0.08202120  0.64952559    -0.83300
O533        O  0.74198087  0.11962002  0.65869623    -0.85900
C534        C  0.75242437  0.13933702  0.67124759     1.01800
O535        O  0.75419306  0.13830233  0.69691776    -0.78700
O536        O  0.70134356  0.14584188  0.71285691    -0.78900
C537        C  0.67636853  0.14075598  0.71467659     1.01700
O538        O  0.69315624  0.06972343  0.74734188    -0.86200
O539        O  0.69278184  0.04612485  0.69720563    -0.83300
C540        C  0.71462342  0.03529500  0.70470145     0.97300
O541        O  0.73596417  0.04602325  0.69520353    -0.83300
O542        O  0.77375986  0.08848747  0.69694808    -0.85900
C543        C  0.77813890  0.09379002  0.72210472     1.01700
O544        O  0.75827045  0.09603667  0.73780933    -0.78700
O545        O  0.70883837  0.10983608  0.75806275    -0.78900
C546        C  0.69898120  0.08712331  0.76498858     1.01700
Cr547      Cr  0.68400315  0.08291605  0.71037491     1.93700
Cr548      Cr  0.73728429  0.08345662  0.67671272     1.93200
Cr549      Cr  0.72987957  0.12097334  0.72521074     1.39100
O550        O  0.71699069  0.09604978  0.70379264    -1.24000
O551        O  0.58475836  0.12132789  0.60113280    -0.86200
O552        O  0.59487663  0.17175293  0.58170341    -0.83300
C553        C  0.61822443  0.16383522  0.57446890     0.97300
O554        O  0.62172200  0.16193070  0.54902289    -0.83300
O555        O  0.61296974  0.13033021  0.50448418    -0.85900
C556        C  0.62223292  0.10758449  0.51229845     1.01800
O557        O  0.61144315  0.09585013  0.53255420    -0.78700
O558        O  0.57641834  0.08531733  0.57650447    -0.78900
C559        C  0.58255875  0.09616309  0.59903854     1.01700
O560        O  0.53100767  0.12246714  0.58233047    -0.86200
O561        O  0.53822467  0.17175941  0.56076090    -0.83300
C562        C  0.54538455  0.19284602  0.54845425     0.97300
O563        O  0.56868325  0.19251526  0.53702270    -0.83300
O564        O  0.55908831  0.15157429  0.49714478    -0.85900
C565        C  0.55428362  0.12793676  0.48773338     1.01700
O566        O  0.56507583  0.10732733  0.49878086    -0.78700
O567        O  0.53269885  0.10144143  0.54301859    -0.78900
C568        C  0.51999287  0.10859808  0.56388972     1.01700
Cr569      Cr  0.56326166  0.14645381  0.57922309     1.93700
Cr570      Cr  0.58957512  0.15801380  0.52374729     1.93200
Cr571      Cr  0.57192153  0.10002252  0.53849110     1.39100
O572        O  0.57486483  0.13449113  0.54727897    -1.24000
O573        O  0.38389647  0.04328606  0.51091388    -0.86200
O574        O  0.33008935  0.04363598  0.52362728    -0.83300
C575        C  0.30763951  0.03802559  0.53426322     0.97300
O576        O  0.30723094  0.03131482  0.55973161    -0.83300
O577        O  0.32989519  0.97968861  0.55596675    -0.85900
C578        C  0.34885962  0.96307953  0.55138194     1.01800
O579        O  0.37230092  0.96813945  0.55994760    -0.78700
O580        O  0.39044127  0.99952081  0.51813139    -0.78900
C581        C  0.39157604  0.02005830  0.50287718     1.01700
O582        O  0.39485223  0.06879912  0.56236028    -0.86200
O583        O  0.34368039  0.07109358  0.57606131    -0.83300
C584        C  0.35177659  0.06510830  0.60002859     0.97300
O585        O  0.34652368  0.04106857  0.60782648    -0.83300
O586        O  0.36163239  0.98536436  0.60609981    -0.85900
C587        C  0.38701247  0.98881756  0.60947938     1.01700
O588        O  0.39752311  0.00777658  0.59655774    -0.78700
O589        O  0.41980146  0.03345289  0.55429232    -0.78900
C590        C  0.41749696  0.05794949  0.56100587     1.01700
Cr591      Cr  0.36271409  0.05470109  0.54405029     1.93700
Cr592      Cr  0.33740287  0.01071272  0.58145869     1.93200
Cr593      Cr  0.39314535  0.00324081  0.55756531     1.39100
O594        O  0.36403442  0.02259370  0.55985150    -1.24000
O595        O  0.38182504  0.22967534  0.67611033    -0.86200
O596        O  0.43061882  0.21729281  0.69345915    -0.83300
C597        C  0.44986374  0.20706837  0.70632295     0.97300
O598        O  0.44755425  0.18260587  0.71398453    -0.83300
O599        O  0.40557089  0.19245266  0.75396202    -0.85900
C600        C  0.38137362  0.19725602  0.76227083     1.01800
O601        O  0.36134322  0.18624153  0.75026820    -0.78700
O602        O  0.35001527  0.21665556  0.70489021    -0.78900
C603        C  0.36138465  0.23440520  0.69038089     1.01700
O604        O  0.37662493  0.18099013  0.64749306    -0.86200
O605        O  0.42507961  0.16330890  0.66399091    -0.83300
C606        C  0.41732976  0.13948440  0.67063593     0.97300
O607        O  0.41541554  0.13422645  0.69617251    -0.83300
O608        O  0.38674309  0.13902055  0.74549042    -0.85900
C609        C  0.36513573  0.12814539  0.73758246     1.01700
O610        O  0.35398637  0.13771422  0.71665417    -0.78700
O611        O  0.34190242  0.17050254  0.67326390    -0.78900
C612        C  0.35269641  0.17333381  0.65019149     1.01700
Cr613      Cr  0.40284846  0.19618636  0.67288757     1.93700
Cr614      Cr  0.41260596  0.16334553  0.72532125     1.93200
Cr615      Cr  0.35480446  0.17783109  0.71063254     1.39100
O616        O  0.38970239  0.17985378  0.70284192    -1.24000
O617        O  0.54418348  0.99598349  0.85178253    -0.86200
O618        O  0.57517951  0.03037181  0.81704419    -0.83300
C619        C  0.55784004  0.03081655  0.79867946     0.97300
O620        O  0.53978309  0.04849988  0.80099383    -0.83300
O621        O  0.49308506  0.05435743  0.82395949    -0.85900
C622        C  0.47727964  0.04517184  0.84216004     1.01800
O623        O  0.48379292  0.04479835  0.86710307    -0.78700
O624        O  0.51892563  0.00774535  0.88712378    -0.78900
C625        C  0.52768955  0.98977499  0.87083139     1.01700
O626        O  0.57103982  0.01841278  0.89522214    -0.86200
O627        O  0.58859408  0.06215896  0.86332195    -0.83300
C628        C  0.58412040  0.08687969  0.85708356     0.97300
O629        O  0.56402809  0.09351762  0.84122587    -0.83300
O630        O  0.50563406  0.10102887  0.85364179    -0.85900
C631        C  0.50302356  0.10228971  0.87923559     1.01700
O632        O  0.51709048  0.08683673  0.89332095    -0.78700
O633        O  0.54921278  0.05182618  0.91228877    -0.78900
C634        C  0.56619540  0.03347645  0.91490238     1.01700
Cr635      Cr  0.56679778  0.02911256  0.85640542     1.93700
Cr636      Cr  0.52810732  0.07316706  0.83187012     1.93200
Cr637      Cr  0.51817920  0.04787368  0.88779374     1.39100
O638        O  0.53706767  0.04962424  0.85802115    -1.24000
O639        O  0.73957624  0.16578517  0.87973645    -0.86200
O640        O  0.73138326  0.18171733  0.93128101    -0.83300
C641        C  0.72486982  0.19612323  0.95118152     0.97300
O642        O  0.70048829  0.20494917  0.95151275    -0.83300
O643        O  0.70312835  0.24704926  0.91279902    -0.85900
C644        C  0.70562454  0.25755648  0.88920798     1.01800
O645        O  0.69804864  0.24445078  0.86848973    -0.78700
O646        O  0.73429444  0.20543292  0.85957152    -0.78900
C647        C  0.74900715  0.18596424  0.86692278     1.01700
O648        O  0.68722442  0.14230127  0.87791284    -0.86200
O649        O  0.67685786  0.15612650  0.92950483    -0.83300
C650        C  0.65302924  0.16236815  0.92228057     0.97300
O651        O  0.64788279  0.18747599  0.92188524    -0.83300
O652        O  0.65044180  0.23447109  0.89129192    -0.85900
C653        C  0.64202514  0.22695071  0.86794197     1.01700
O654        O  0.65446803  0.20805113  0.85592357    -0.78700
O655        O  0.69321376  0.16864866  0.84251921    -0.78900
C656        C  0.68832060  0.14559542  0.85270185     1.01700
Cr657      Cr  0.70754792  0.16383882  0.90420484     1.93700
Cr658      Cr  0.67668668  0.21641378  0.91823317     1.93200
Cr659      Cr  0.69465653  0.20567293  0.85929285     1.39100
O660        O  0.69337845  0.19540048  0.89378519    -1.24000
O661        O  0.62429528  0.07974412  0.07731347    -0.86200
O662        O  0.67678598  0.07346817  0.08855827    -0.83300
C663        C  0.66947825  0.06822400  0.11284892     0.97300
O664        O  0.67095853  0.04341825  0.11982393    -0.83300
O665        O  0.64643258  0.99279058  0.11842813    -0.85900
C666        C  0.62276655  0.99983016  0.12604193     1.01800
O667        O  0.61053387  0.01737118  0.11212610    -0.78700
O668        O  0.59275025  0.05010874  0.06926889    -0.78900
C669        C  0.60014950  0.07432789  0.07283349     1.01700
O670        O  0.62936138  0.05447674  0.02577199    -0.86200
O671        O  0.68308583  0.04778917  0.03479070    -0.83300
C672        C  0.70462195  0.03798318  0.04400438     0.97300
O673        O  0.70458457  0.02843866  0.06852170    -0.83300
O674        O  0.67096405  0.98158434  0.06478157    -0.85900
C675        C  0.64880560  0.96881253  0.06092978     1.01700
O676        O  0.62756529  0.97701600  0.07275653    -0.78700
O677        O  0.61458141  0.01280084  0.03314788    -0.78900
C678        C  0.61701682  0.03334343  0.01816329     1.01700
Cr679      Cr  0.65317746  0.06165547  0.05769331     1.93700
Cr680      Cr  0.67226239  0.01287348  0.09179830     1.93200
Cr681      Cr  0.61380446  0.01535432  0.07231841     1.39100
O682        O  0.64652342  0.02976499  0.07312728    -1.24000
O683        O  0.63450707  0.21320614  0.15840138    -0.86200
O684        O  0.60208210  0.16984738  0.16131328    -0.83300
C685        C  0.59937560  0.14704063  0.17255737     0.97300
O686        O  0.58740141  0.14565963  0.19602467    -0.83300
O687        O  0.62080558  0.14439903  0.23792691    -0.85900
C688        C  0.64583917  0.14661916  0.24088880     1.01800
O689        O  0.65775811  0.16833701  0.23490868    -0.78700
O690        O  0.65909081  0.18700050  0.18350068    -0.78900
C691        C  0.65658198  0.20172633  0.16294728     1.01700
O692        O  0.59866428  0.24424436  0.18885842    -0.86200
O693        O  0.55952595  0.20354029  0.18409659    -0.83300
C694        C  0.54909279  0.20752262  0.20711959     0.97300
O695        O  0.56002555  0.19607821  0.22729548    -0.83300
O696        O  0.60047322  0.19251218  0.26469629    -0.85900
C697        C  0.61826867  0.21068836  0.27011275     1.01700
O698        O  0.63545943  0.21746691  0.25248402    -0.78700
O699        O  0.64114819  0.24005307  0.20218741    -0.78900
C700        C  0.62164112  0.25447352  0.19374588     1.01700
Cr701      Cr  0.59917700  0.20615982  0.17631834     1.93700
Cr702      Cr  0.59276487  0.17148710  0.22931749     1.93200
Cr703      Cr  0.64559239  0.20255412  0.21744254     1.39100
O704        O  0.61222801  0.19372799  0.20855406    -1.24000
O705        O  0.09097519  0.07134066  0.62162679    -0.86200
O706        O  0.08617931  0.08624558  0.67334749    -0.83300
C707        C  0.07930830  0.10974001  0.66514575     0.97300
O708        O  0.05465361  0.11541458  0.66788355    -0.83300
O709        O  0.00484355  0.11184343  0.64390686    -0.85900
C710        C  0.00984418  0.11692327  0.61873195     1.01800
O711        O  0.02513628  0.10105108  0.60585048    -0.78700
O712        O  0.06035910  0.05858019  0.59236188    -0.78900
C713        C  0.08462305  0.06531243  0.59778996     1.01700
O714        O  0.06703060  0.01911364  0.63227565    -0.86200
O715        O  0.05991672  0.03242759  0.68416196    -0.83300
C716        C  0.04909376  0.04118353  0.70545486     0.97300
O717        O  0.04058226  0.06585715  0.70530013    -0.83300
O718        O  0.99429758  0.06196558  0.67485605    -0.85900
C719        C  0.97952695  0.05657473  0.65459289     1.01700
O720        O  0.98738906  0.06242892  0.63051043    -0.78700
O721        O  0.02417705  0.02244476  0.62131980    -0.78900
C722        C  0.04545275  0.00871709  0.62322463     1.01700
Cr723      Cr  0.07375493  0.05339310  0.65285583     1.93700
Cr724      Cr  0.02520428  0.08755305  0.67171949     1.93200
Cr725      Cr  0.02544950  0.06177842  0.61480168     1.39100
O726        O  0.04135958  0.06732414  0.64645766    -1.24000
O727        O  0.19085658  0.16802378  0.63039808    -0.86200
O728        O  0.16799855  0.16956540  0.57875320    -0.83300
C729        C  0.14853191  0.17855515  0.59203340     0.97300
O730        O  0.14807815  0.20393355  0.59429475    -0.83300
O731        O  0.16443770  0.25021977  0.61624369    -0.85900
C732        C  0.17226145  0.25019691  0.64105141     1.01800
O733        O  0.19380546  0.23828831  0.64830104    -0.78700
O734        O  0.22365800  0.19191453  0.64861691    -0.78900
C735        C  0.20663768  0.17278598  0.64987017     1.01700
O736        O  0.24242778  0.17094829  0.60567727    -0.86200
O737        O  0.21981328  0.18286774  0.55836892    -0.83300
C738        C  0.21219200  0.19933322  0.54048932     0.97300
O739        O  0.19110399  0.21416512  0.54526313    -0.83300
O740        O  0.20169613  0.26179659  0.57256382    -0.85900
C741        C  0.21844780  0.27321331  0.58828881     1.01700
O742        O  0.22806836  0.26096333  0.60859847    -0.78700
O743        O  0.25624122  0.21265796  0.60359714    -0.78900
C744        C  0.26108229  0.18759450  0.60093996     1.01700
Cr745      Cr  0.20462403  0.17558655  0.59382603     1.93700
Cr746      Cr  0.17773683  0.23039958  0.58257438     1.93200
Cr747      Cr  0.22399996  0.22486918  0.62518985     1.39100
O748        O  0.20221492  0.21105395  0.60036290    -1.24000
O749        O  0.01436117  0.85845445  0.57466366    -0.86200
O750        O  0.03809051  0.81061220  0.56937643    -0.83300
C751        C  0.04213514  0.79204192  0.55247017     0.97300
O752        O  0.06179758  0.79500086  0.53551800    -0.83300
O753        O  0.04417371  0.81794220  0.48890041    -0.85900
C754        C  0.03106577  0.83531490  0.47546001     1.01800
O755        O  0.02929929  0.85933188  0.48372275    -0.78700
O756        O  0.99992111  0.85948330  0.53233952    -0.78900
C757        C  0.99529946  0.86068633  0.55769514     1.01700
O758        O  0.06528518  0.88540095  0.57698675    -0.86200
O759        O  0.09136382  0.83749459  0.57558253    -0.83300
C760        C  0.10943049  0.84666132  0.55985675     0.97300
O761        O  0.10702677  0.84194563  0.53474554    -0.83300
O762        O  0.08656430  0.85929980  0.48846833    -0.85900
C763        C  0.08468991  0.88491694  0.49098431     1.01700
O764        O  0.06675147  0.89517524  0.50625260    -0.78700
O765        O  0.03339233  0.90161005  0.55134836    -0.78900
C766        C  0.05044169  0.90490420  0.57007286     1.01700
Cr767      Cr  0.05269149  0.84772450  0.57121962     1.93700
Cr768      Cr  0.07370912  0.82946988  0.51424994     1.93200
Cr769      Cr  0.03383675  0.87671953  0.51949887     1.39100
O770        O  0.05321345  0.85094802  0.53479008    -1.24000
O771        O  0.18284260  0.89470908  0.73042650    -0.86200
O772        O  0.18444672  0.93906579  0.69574752    -0.83300
C773        C  0.20683837  0.94926188  0.70281132     0.97300
O774        O  0.22805571  0.93879071  0.69303333    -0.83300
O775        O  0.26603774  0.89641439  0.68864832    -0.85900
C776        C  0.26614753  0.87983235  0.70892692     1.01800
O777        O  0.24413635  0.87063158  0.71722899    -0.78700
O778        O  0.19410626  0.85244407  0.72341429    -0.78900
C779        C  0.18513973  0.87064170  0.73889379     1.01700
O780        O  0.15896941  0.86289147  0.68821910    -0.86200
O781        O  0.16569044  0.90159516  0.65250656    -0.83300
C782        C  0.18089660  0.90507235  0.63232667     0.97300
O783        O  0.20394284  0.91720329  0.63562699    -0.83300
O784        O  0.24503474  0.88356185  0.63590248    -0.85900
C785        C  0.25537752  0.86097543  0.64114773     1.01700
O786        O  0.24780765  0.84821644  0.66254266    -0.78700
O787        O  0.18906115  0.83661495  0.66919533    -0.78900
C788        C  0.16438216  0.84184085  0.67482875     1.01700
Cr789      Cr  0.17615163  0.89918046  0.69083909     1.93700
Cr790      Cr  0.23317348  0.90859036  0.66498016     1.93200
Cr791      Cr  0.21836350  0.85431940  0.69174855     1.39100
O792        O  0.20919476  0.88722758  0.68175050    -1.24000
O793        O  0.88448658  0.07913995  0.97732433    -0.86200
O794        O  0.85761513  0.08694029  0.93037774    -0.83300
C795        C  0.84999560  0.08106197  0.90665952     0.97300
O796        O  0.83313333  0.06128398  0.90372658    -0.83300
O797        O  0.86800953  0.02069159  0.89879155    -0.85900
C798        C  0.88952444  0.00881920  0.90530313     1.01800
O799        O  0.89373166  0.00187740  0.93000212    -0.78700
O800        O  0.90680552  0.04747391  0.95649904    -0.78900
C801        C  0.90646237  0.06997143  0.96819682     1.01700
O802        O  0.83686822  0.05420692  0.00027429    -0.86200
O803        O  0.80706714  0.06698770  0.95598544    -0.83300
C804        C  0.79411058  0.04518667  0.96046587     0.97300
O805        O  0.80251910  0.02465250  0.94745846    -0.83300
O806        O  0.84053640  0.98379598  0.93438159    -0.85900
C807        C  0.84895465  0.97307538  0.95653236     1.01700
O808        O  0.85787123  0.98797847  0.97522735    -0.78700
O809        O  0.87549319  0.03282608  0.00377180    -0.78900
C810        C  0.85562079  0.04497557  0.01468572     1.01700
Cr811      Cr  0.84674607  0.06957144  0.96470278     1.93700
Cr812      Cr  0.83620338  0.02382936  0.92322934     1.93200
Cr813      Cr  0.88147263  0.01864224  0.96549640     1.39100
O814        O  0.85500745  0.03722784  0.95095486    -1.24000
O815        O  0.88008096  0.18935069  0.84249661    -0.86200
O816        O  0.93018553  0.16984223  0.84141653    -0.83300
C817        C  0.92074778  0.14706013  0.83382496     0.97300
O818        O  0.92261132  0.14171305  0.80860001    -0.83300
O819        O  0.89921225  0.14793904  0.75798619    -0.85900
C820        C  0.87404757  0.14768240  0.76401346     1.01800
O821        O  0.86568487  0.16407590  0.78157670    -0.78700
O822        O  0.85629480  0.20959348  0.81156148    -0.78900
C823        C  0.85765676  0.19674991  0.83366177     1.01700
O824        O  0.89718937  0.24184812  0.81982062    -0.86200
O825        O  0.94884841  0.22142946  0.81674569    -0.83300
C826        C  0.96856881  0.20984033  0.80547509     0.97300
O827        O  0.96478145  0.18631116  0.79471791    -0.83300
O828        O  0.93484399  0.19454802  0.74590026    -0.85900
C829        C  0.91407082  0.20038485  0.73169439     1.01700
O830        O  0.89104390  0.19565459  0.74113634    -0.78700
O831        O  0.89201502  0.23810478  0.77563985    -0.78900
C832        C  0.89187355  0.25246568  0.79661899     1.01700
Cr833      Cr  0.91405179  0.20485818  0.82803339     1.93700
Cr834      Cr  0.92975294  0.16894686  0.77834989     1.93200
Cr835      Cr  0.87824298  0.20131452  0.77860198     1.39100
O836        O  0.90795064  0.19209661  0.79487714    -1.24000
O837        O  0.20548371  0.08745429  0.75038200    -0.86200
O838        O  0.18574224  0.05501768  0.78961501    -0.83300
C839        C  0.20594703  0.03950696  0.78676752     0.97300
O840        O  0.22630573  0.04510433  0.80157664    -0.83300
O841        O  0.27111040  0.07643507  0.81553657    -0.85900
C842        C  0.28188711  0.08398266  0.79298076     1.01800
O843        O  0.26903295  0.09879056  0.77678177    -0.78700
O844        O  0.22883142  0.12514064  0.75155596    -0.78900
C845        C  0.21675734  0.10674080  0.73841564     1.01700
O846        O  0.18436362  0.13567310  0.77676011    -0.86200
O847        O  0.16980375  0.10497825  0.81926996    -0.83300
C848        C  0.17397733  0.09591150  0.84287907     0.97300
O849        O  0.19292619  0.07820729  0.84625131    -0.83300
O850        O  0.23756025  0.10804195  0.85343365    -0.85900
C851        C  0.25252766  0.12827061  0.84875284     1.01700
O852        O  0.26216849  0.13173161  0.82508451    -0.78700
O853        O  0.21770786  0.15316972  0.80032967    -0.78900
C854        C  0.19528475  0.15570252  0.78858725     1.01700
Cr855      Cr  0.18866542  0.09577246  0.78533553     1.93700
Cr856      Cr  0.23096174  0.07755452  0.82744499     1.93200
Cr857      Cr  0.24296754  0.12523915  0.78937235     1.39100
O858        O  0.22081033  0.09969833  0.80113409    -1.24000
O859        O  0.01778378  0.13032280  0.94093414    -0.86200
O860        O  0.03201219  0.18325487  0.94473552    -0.83300
C861        C  0.04217213  0.20389774  0.95572378     0.97300
O862        O  0.06692562  0.20279710  0.96331767    -0.83300
O863        O  0.06320492  0.16916998  0.01060397    -0.85900
C864        C  0.06025910  0.14663468  0.02327730     1.01800
O865        O  0.07276291  0.12688947  0.01388607    -0.78700
O866        O  0.02764361  0.11634807  0.98261715    -0.78900
C867        C  0.01096697  0.11964293  0.96349389     1.01700
O868        O  0.06586493  0.11925757  0.91112141    -0.86200
O869        O  0.08344562  0.17017473  0.91423179    -0.83300
C870        C  0.10749143  0.16290846  0.92008109     0.97300
O871        O  0.11474221  0.16648169  0.94478783    -0.83300
O872        O  0.11551350  0.14304302  0.99557711    -0.85900
C873        C  0.12113196  0.11834004  0.99028099     1.01700
O874        O  0.10623382  0.10555786  0.97360502    -0.78700
O875        O  0.05961489  0.08967705  0.94372417    -0.78900
C876        C  0.06201543  0.09539273  0.91878475     1.01700
Cr877      Cr  0.05121182  0.15071830  0.93012230     1.93700
Cr878      Cr  0.08878097  0.16934102  0.97712765     1.93200
Cr879      Cr  0.06667989  0.11187148  0.97712450     1.39100
O880        O  0.06859692  0.14396003  0.96122340    -1.24000
O881        O  0.93759345  0.88590495  0.08214651    -0.86200
O882        O  0.91960543  0.83425366  0.08306540    -0.83300
C883        C  0.89783905  0.84293869  0.07280783     0.97300
O884        O  0.89561246  0.84134774  0.04719852    -0.83300
O885        O  0.90611426  0.85883585  0.99639763    -0.85900
C886        C  0.90567390  0.88456838  0.99727664     1.01800
O887        O  0.92346833  0.89754880  0.01034602    -0.78700
O888        O  0.96011709  0.90884934  0.05139675    -0.78900
C889        C  0.94631139  0.90811971  0.07304024     1.01700
O890        O  0.99097170  0.86870216  0.07066438    -0.86200
O891        O  0.97403312  0.81710660  0.06555974    -0.83300
C892        C  0.96647672  0.79686104  0.05205443     0.97300
O893        O  0.94336092  0.79836687  0.04000850    -0.83300
O894        O  0.95193183  0.82338374  0.99017956    -0.85900
C895        C  0.96169852  0.84203161  0.97519668     1.01700
O896        O  0.96256289  0.86623990  0.98332423    -0.78700
O897        O  0.99780730  0.87336268  0.02674007    -0.78900
C898        C  0.00654373  0.87375238  0.05095768     1.01700
Cr899      Cr  0.95480866  0.85139681  0.07251542     1.93700
Cr900      Cr  0.92567576  0.83161797  0.02045014     1.93200
Cr901      Cr  0.95997994  0.88405551  0.01932846     1.39100
O902        O  0.94721203  0.85546026  0.03702874    -1.24000
O903        O  0.83604031  0.86766895  0.20627013    -0.86200
O904        O  0.83661507  0.90958423  0.17113412    -0.83300
C905        C  0.82484624  0.89812787  0.15156433     0.97300
O906        O  0.79934322  0.89918158  0.15073971    -0.83300
O907        O  0.75402331  0.87701467  0.16845192    -0.85900
C908        C  0.75645417  0.85288275  0.17733543     1.01800
O909        O  0.76851230  0.84782504  0.19973735    -0.78700
O910        O  0.80939132  0.85495239  0.23900468    -0.78900
C911        C  0.82949827  0.85054256  0.22409591     1.01700
O912        O  0.82442768  0.90340617  0.24999175    -0.86200
O913        O  0.81834530  0.94415971  0.21651691    -0.83300
C914        C  0.80035460  0.95949538  0.20714765     0.97300
O915        O  0.78519397  0.95120432  0.18755000    -0.83300
O916        O  0.73969273  0.92348585  0.20094164    -0.85900
C917        C  0.72678120  0.90767340  0.21652303     1.01700
O918        O  0.73804698  0.88730038  0.22675923    -0.78700
O919        O  0.78175134  0.89988595  0.26096705    -0.78900
C920        C  0.80599277  0.90506593  0.26759433     1.01700
Cr921      Cr  0.82572639  0.90578509  0.21019682     1.93700
Cr922      Cr  0.77182947  0.91226622  0.17875939     1.93200
Cr923      Cr  0.77565284  0.87463893  0.22955503     1.39100
O924        O  0.79065046  0.89789074  0.20613518    -1.24000
O925        O  0.76636117  0.19879456  0.11020857    -0.86200
O926        O  0.79172923  0.19577666  0.06237065    -0.83300
C927        C  0.80345349  0.20820191  0.04337947     0.97300
O928        O  0.82697427  0.21907540  0.04758731    -0.83300
O929        O  0.82305094  0.26997117  0.07214494    -0.85900
C930        C  0.81521318  0.28610957  0.09058019     1.01800
O931        O  0.81220678  0.27734369  0.11437927    -0.78700
O932        O  0.76924053  0.24334465  0.11086931    -0.78900
C933        C  0.75533998  0.22200905  0.11141796     1.01700
O934        O  0.81448930  0.17803528  0.13688517    -0.86200
O935        O  0.83946747  0.17171037  0.08879566    -0.83300
C936        C  0.86168185  0.17970000  0.09877112     0.97300
O937        O  0.86739123  0.20465173  0.09591025    -0.83300
O938        O  0.86175136  0.25633381  0.11615721    -0.85900
C939        C  0.85756386  0.25379083  0.14198710     1.01700
O940        O  0.83793945  0.23970333  0.15004337    -0.78700
O941        O  0.79109659  0.21103716  0.15363188    -0.78900
C942        C  0.80208649  0.18837842  0.15646641     1.01700
Cr943      Cr  0.80416384  0.18847892  0.09951665     1.93700
Cr944      Cr  0.84334625  0.23574916  0.08359781     1.93200
Cr945      Cr  0.80361140  0.24152880  0.13017961     1.39100
O946        O  0.81682278  0.22213329  0.10370962    -1.24000
O947        O  0.92947223  0.02099077  0.14090934    -0.86200
O948        O  0.94516648  0.03457505  0.19188380    -0.83300
C949        C  0.96103333  0.04280177  0.21003958     0.97300
O950        O  0.97266684  0.06603042  0.20700145    -0.83300
O951        O  0.01338975  0.05794993  0.16738993    -0.85900
C952        C  0.02272117  0.05307224  0.14371584     1.01800
O953        O  0.00956155  0.06128863  0.12310282    -0.78700
O954        O  0.96884019  0.02355926  0.11993581    -0.78900
C955        C  0.94780938  0.01059799  0.12630023     1.01700
O956        O  0.90672149  0.07357246  0.13355322    -0.86200
O957        O  0.92276760  0.08982432  0.18314968    -0.83300
C958        C  0.93058594  0.11246888  0.17334631     0.97300
O959        O  0.95593235  0.11616801  0.17233030    -0.83300
O960        O  0.00119708  0.10891678  0.13938284    -0.85900
C961        C  0.99112224  0.11410134  0.11589849     1.01700
O962        O  0.96919743  0.10275902  0.11016109    -0.78700
O963        O  0.93267341  0.06195335  0.09994728    -0.78900
C964        C  0.90984113  0.06823270  0.10890670     1.01700
Cr965      Cr  0.92861396  0.05575627  0.16195835     1.93700
Cr966      Cr  0.98367227  0.08616566  0.17092430     1.93200
Cr967      Cr  0.96955782  0.06297461  0.11577115     1.39100
O968        O  0.96077569  0.06728273  0.14989651    -1.24000
O969        O  0.09257099  0.96454705  0.87501041    -0.86200
O970        O  0.08849529  0.91745247  0.84561945    -0.83300
C971        C  0.07757038  0.89445288  0.84301309     0.97300
O972        O  0.05329623  0.89245651  0.83263761    -0.83300
O973        O  0.00782594  0.89396105  0.86545680    -0.85900
C974        C  0.01138171  0.89283686  0.89093489     1.01800
O975        O  0.02489572  0.91097862  0.90271766    -0.78700
O976        O  0.07285526  0.93434436  0.89907270    -0.78900
C977        C  0.09116008  0.95145206  0.89680275     1.01700
O978        O  0.05819212  0.98953414  0.83758733    -0.86200
O979        O  0.06641991  0.94651727  0.80151126    -0.83300
C980        C  0.04454736  0.95373125  0.79108823     0.97300
O981        O  0.02374823  0.94419685  0.80236867    -0.83300
O982        O  0.98818332  0.94453396  0.84316982    -0.85900
C983        C  0.98314469  0.95839392  0.86463123     1.01700
O984        O  0.99938703  0.95853346  0.88429867    -0.78700
O985        O  0.04677485  0.98681308  0.88144892    -0.78900
C986        C  0.05202880  0.00070106  0.85988450     1.01700
Cr987      Cr  0.07350942  0.95309182  0.84073160     1.93700
Cr988      Cr  0.02055174  0.91977430  0.83622122     1.93200
Cr989      Cr  0.03665116  0.94737853  0.88954043     1.39100
O990        O  0.04252099  0.94030126  0.85531593    -1.24000
O991        O  0.18301484  0.82614020  0.86224420    -0.86200
O992        O  0.16986636  0.82691686  0.91617328    -0.83300
C993        C  0.14658487  0.81947808  0.90876390     0.97300
O994        O  0.14200942  0.79438739  0.91087960    -0.83300
O995        O  0.14694568  0.74491823  0.88981760    -0.85900
C996        C  0.14379572  0.75000094  0.86442242     1.01800
O997        O  0.16287141  0.76045347  0.85085174    -0.78700
O998        O  0.20381473  0.79554627  0.83808892    -0.78900
C999        C  0.19083377  0.81741215  0.83960164     1.01700
O1000       O  0.23700869  0.81043497  0.87529650    -0.86200
O1001       O  0.22364204  0.80594430  0.92779728    -0.83300
C1002       C  0.21590489  0.79468139  0.94937509     0.97300
O1003       O  0.19224478  0.78351036  0.94947937    -0.83300
O1004       O  0.19630013  0.73397578  0.92252719    -0.85900
C1005       C  0.20296740  0.71854556  0.90299644     1.01700
O1006       O  0.19970119  0.72625015  0.87868270    -0.78700
O1007       O  0.23990034  0.76599180  0.87186765    -0.78900
C1008       C  0.25087489  0.78926463  0.87173012     1.01700
Cr1009     Cr  0.20239731  0.81505786  0.89535956     1.93700
Cr1010     Cr  0.17085267  0.76560481  0.91710047     1.93200
Cr1011     Cr  0.20093355  0.76313773  0.86222768     1.39100
O1012       O  0.19173203  0.78089879  0.89185520    -1.24000
O1013       O  0.12188405  0.77119895  0.17918263    -0.86200
O1014       O  0.06960204  0.78481870  0.19200389    -0.83300
C1015       C  0.04995599  0.79475619  0.20464005     0.97300
O1016       O  0.05188835  0.81915166  0.21376669    -0.83300
O1017       O  0.08367076  0.81166601  0.26075723    -0.85900
C1018       C  0.10485624  0.80435341  0.27351063     1.01800
O1019       O  0.12787382  0.80692574  0.26264578    -0.78700
O1020       O  0.13611064  0.77162440  0.22164747    -0.78900
C1021       C  0.13358512  0.75983426  0.19916882     1.01700
O1022       O  0.12941952  0.82453728  0.15914686    -0.86200
O1023       O  0.08016183  0.84020284  0.16773423    -0.83300
C1024       C  0.09010741  0.86304728  0.17476873     0.97300
O1025       O  0.09096340  0.86728453  0.20029697    -0.83300
O1026       O  0.11483244  0.85902029  0.25176296    -0.85900
C1027       C  0.13998888  0.86177303  0.24733158     1.01700
O1028       O  0.15001169  0.84957585  0.22750953    -0.78700
O1029       O  0.16049185  0.81306604  0.18867436    -0.78900
C1030       C  0.15344484  0.82115498  0.16530174     1.01700
Cr1031     Cr  0.10030615  0.80589448  0.17725587     1.93700
Cr1032     Cr  0.08625848  0.83819035  0.22949710     1.93200
Cr1033     Cr  0.14123606  0.81083549  0.22417470     1.39100
O1034       O  0.10911969  0.81752134  0.21066029    -1.24000
O1035       O  0.14574558  0.94352124  0.01155026    -0.86200
O1036       O  0.19620756  0.94793045  0.03132908    -0.83300
C1037       C  0.21610057  0.95972689  0.04194975     0.97300
O1038       O  0.21302814  0.97058327  0.06577985    -0.83300
O1039       O  0.18311435  0.01824127  0.05823085    -0.85900
C1040       C  0.16273591  0.03243232  0.05157580     1.01800
O1041       O  0.13928008  0.02317058  0.05516266    -0.78700
O1042       O  0.13763142  0.98744099  0.01353109    -0.78900
C1043       C  0.13982062  0.96593442  0.00006650     1.01700
O1044       O  0.12888831  0.92151469  0.06412034    -0.86200
O1045       O  0.17748881  0.92346058  0.08434134    -0.83300
C1046       C  0.16685337  0.93140558  0.10658232     0.97300
O1047       O  0.16963632  0.95650388  0.11160436    -0.83300
O1048       O  0.14686329  0.00764922  0.10433506    -0.85900
C1049       C  0.12165505  0.00160165  0.10442399     1.01700
O1050       O  0.11410747  0.98270568  0.08928451    -0.78700
O1051       O  0.10377616  0.95197313  0.04503600    -0.78900
C1052       C  0.10628627  0.92940694  0.05661850     1.01700
Cr1053     Cr  0.16214234  0.93639376  0.04863119     1.93700
Cr1054     Cr  0.17757399  0.98644720  0.08386090     1.93200
Cr1055     Cr  0.12572659  0.98532496  0.05140070     1.39100
O1056       O  0.15581227  0.96967825  0.06054256    -1.24000
O1057       O  0.31088857  0.35105976  0.72236786    -0.86200
O1058       O  0.32991371  0.38304848  0.68264942    -0.83300
C1059       C  0.32779799  0.39122369  0.65832583     0.97300
O1060       O  0.30944782  0.40900639  0.65270168    -0.83300
O1061       O  0.26269217  0.38459590  0.64114411    -0.85900
C1062       C  0.24696561  0.36457642  0.64353269     1.01800
O1063       O  0.23823219  0.35788291  0.66659005    -0.78700
O1064       O  0.28321119  0.33650700  0.69129768    -0.78900
C1065       C  0.30362948  0.33266067  0.70603559     1.01700
O1066       O  0.28693663  0.39793047  0.74902779    -0.86200
O1067       O  0.31363978  0.43170142  0.71329812    -0.83300
C1068       C  0.29525591  0.44937189  0.71226286     0.97300
O1069       O  0.27646934  0.44494307  0.69528840    -0.83300
O1070       O  0.23098728  0.41737993  0.68176594    -0.85900
C1071       C  0.21872187  0.40709560  0.70248699     1.01700
O1072       O  0.22739351  0.38625482  0.71442330    -0.78700
O1073       O  0.26589553  0.35987332  0.74175817    -0.78900
C1074       C  0.27194008  0.37904232  0.75764656     1.01700
Cr1075     Cr  0.30803085  0.39121679  0.71522563     1.93700
Cr1076     Cr  0.27073657  0.41282575  0.66950739     1.93200
Cr1077     Cr  0.25550615  0.36209237  0.70282629     1.39100
O1078       O  0.27779332  0.38913199  0.69560845    -1.24000
O1079       O  0.43418022  0.36167372  0.61130402    -0.86200
O1080       O  0.41854868  0.31378141  0.59037066    -0.83300
C1081       C  0.39873412  0.32741467  0.58161281     0.97300
O1082       O  0.39982155  0.33332917  0.55636709    -0.83300
O1083       O  0.41979308  0.36672835  0.51549255    -0.85900
C1084       C  0.41789332  0.39050488  0.52517297     1.01800
O1085       O  0.42940170  0.39587008  0.54740923    -0.78700
O1086       O  0.45970382  0.39333523  0.59416830    -0.78900
C1087       C  0.44094759  0.38608706  0.60988184     1.01700
O1088       O  0.49057657  0.34785435  0.60299336    -0.86200
O1089       O  0.47523670  0.30114155  0.57774573    -0.83300
C1090       C  0.46876426  0.28648468  0.55763160     0.97300
O1091       O  0.44826206  0.29339874  0.54303639    -0.83300
O1092       O  0.46704228  0.33410693  0.50797359    -0.85900
C1093       C  0.47804863  0.35684542  0.50231663     1.01700
O1094       O  0.47329348  0.37714439  0.51698222    -0.78700
O1095       O  0.50076259  0.36733179  0.56394201    -0.78900
C1096       C  0.50780389  0.35676639  0.58615958     1.01700
Cr1097     Cr  0.45439484  0.33205639  0.59334714     1.93700
Cr1098     Cr  0.43447523  0.33212688  0.53313238     1.93200
Cr1099     Cr  0.46488348  0.38090623  0.55609979     1.39100
O1100       O  0.45184193  0.34807373  0.56058070    -1.24000
O1101       O  0.37278037  0.68827341  0.32714773    -0.86200
O1102       O  0.42334598  0.66931698  0.32730150    -0.83300
C1103       C  0.41530515  0.64550157  0.32143816     0.97300
O1104       O  0.41739037  0.63863147  0.29648430    -0.83300
O1105       O  0.39682275  0.64113371  0.24421134    -0.85900
C1106       C  0.37190334  0.63652333  0.24938256     1.01800
O1107       O  0.35919322  0.65303179  0.26420165    -0.78700
O1108       O  0.34609373  0.69983702  0.29387610    -0.78900
C1109       C  0.35034574  0.69602436  0.31882599     1.01700
O1110       O  0.38826960  0.73743716  0.30027078    -0.86200
O1111       O  0.44005437  0.72043674  0.29978778    -0.83300
C1112       C  0.46068468  0.70858727  0.29111673     0.97300
O1113       O  0.45808829  0.68439780  0.28178546    -0.83300
O1114       O  0.42826085  0.69133411  0.23254292    -0.85900
C1115       C  0.40765769  0.69693164  0.21788138     1.01700
O1116       O  0.38502124  0.68723986  0.22465317    -0.78700
O1117       O  0.37587554  0.73075713  0.25749227    -0.78900
C1118       C  0.37880613  0.74601049  0.27779709     1.01700
Cr1119     Cr  0.40591976  0.70263089  0.31121273     1.93700
Cr1120     Cr  0.42414890  0.66518690  0.26489033     1.93200
Cr1121     Cr  0.36889122  0.69202743  0.26147785     1.39100
O1122       O  0.39980431  0.68712270  0.27917176    -1.24000
O1123       O  0.38265292  0.59671535  0.47456911    -0.86200
O1124       O  0.35783741  0.59074684  0.42662687    -0.83300
C1125       C  0.35330285  0.57987215  0.40400308     0.97300
O1126       O  0.34074746  0.55678319  0.40382495    -0.83300
O1127       O  0.38201635  0.52205413  0.40909261    -0.85900
C1128       C  0.40358487  0.51312983  0.41936144     1.01800
O1129       O  0.40682013  0.51294691  0.44507232    -0.78700
O1130       O  0.41147869  0.56531248  0.46227365    -0.78900
C1131       C  0.40661465  0.58939380  0.46923407     1.01700
O1132       O  0.33778221  0.56856216  0.50040320    -0.86200
O1133       O  0.30980931  0.56637598  0.45404837    -0.83300
C1134       C  0.30114796  0.54359669  0.46265357     0.97300
O1135       O  0.31327539  0.52317059  0.45297224    -0.83300
O1136       O  0.35860379  0.48832258  0.45028587    -0.85900
C1137       C  0.36627745  0.48503815  0.47497782     1.01700
O1138       O  0.36763014  0.50546439  0.48976895    -0.78700
O1139       O  0.37909226  0.55511583  0.50878748    -0.78900
C1140       C  0.35623562  0.56314031  0.51686113     1.01700
Cr1141     Cr  0.34768350  0.57839898  0.46301156     1.93700
Cr1142     Cr  0.34824326  0.52439365  0.43071345     1.93200
Cr1143     Cr  0.38950976  0.53523561  0.47519098     1.39100
O1144       O  0.36231116  0.54626071  0.45577493    -1.24000
O1145       O  0.52232535  0.36282520  0.09403608    -0.86200
O1146       O  0.53941758  0.31315908  0.08139859    -0.83300
C1147       C  0.54611325  0.29489675  0.06490231     0.97300
O1148       O  0.56881793  0.29771349  0.05222950    -0.83300
O1149       O  0.55939071  0.32693621  0.00583631    -0.85900
C1150       C  0.54726260  0.34567311  0.99325602     1.01800
O1151       O  0.54502454  0.36890813  0.00388909    -0.78700
O1152       O  0.51254983  0.36761946  0.05084002    -0.78900
C1153       C  0.50500498  0.36365177  0.07532000     1.01700
O1154       O  0.57614501  0.38104347  0.10275023    -0.86200
O1155       O  0.59443575  0.32906438  0.09757185    -0.83300
C1156       C  0.61547963  0.33984319  0.08795711     0.97300
O1157       O  0.61673448  0.34004470  0.06236825    -0.83300
O1158       O  0.60378292  0.36427776  0.01586693    -0.85900
C1159       C  0.60311548  0.38999947  0.01837522     1.01700
O1160       O  0.58420637  0.40102510  0.03180862    -0.78700
O1161       O  0.54960140  0.40509625  0.07641008    -0.78900
C1162       C  0.56354641  0.40267359  0.09795847     1.01700
Cr1163     Cr  0.55892353  0.34682232  0.09124396     1.93700
Cr1164     Cr  0.58579488  0.33319026  0.03617428     1.93200
Cr1165     Cr  0.54897107  0.38344214  0.04176812     1.39100
O1166       O  0.56449319  0.35447322  0.05597160    -1.24000
O1167       O  0.71027367  0.37238316  0.24495148    -0.86200
O1168       O  0.71469051  0.42654133  0.23222139    -0.83300
C1169       C  0.72140588  0.44851623  0.22099592     0.97300
O1170       O  0.72767412  0.44807029  0.19558295    -0.83300
O1171       O  0.77678075  0.42135905  0.20018891    -0.85900
C1172       C  0.79202538  0.40174605  0.20670961     1.01800
O1173       O  0.78682891  0.37774423  0.19864199    -0.78700
O1174       O  0.75216788  0.35975517  0.23746369    -0.78900
C1175       C  0.73186819  0.36113676  0.25277970     1.01700
O1176       O  0.68490609  0.36357822  0.19447500    -0.86200
O1177       O  0.68604271  0.41516187  0.17999903    -0.83300
C1178       C  0.69099566  0.40748496  0.15575043     0.97300
O1179       O  0.71539853  0.40953557  0.14794613    -0.83300
O1180       O  0.76967110  0.39267385  0.14935678    -0.85900
C1181       C  0.76676252  0.36784369  0.14286516     1.01700
O1182       O  0.75159311  0.35316008  0.15731126    -0.78700
O1183       O  0.71767144  0.33409441  0.19840258    -0.78900
C1184       C  0.69287359  0.33970313  0.19522847     1.01700
Cr1185     Cr  0.70143918  0.39444780  0.21178714     1.93700
Cr1186     Cr  0.74606566  0.41642042  0.17439135     1.93200
Cr1187     Cr  0.75069079  0.35861778  0.19751763     1.39100
O1188       O  0.73292467  0.38967784  0.19513977    -1.24000
O1189       O  0.24246639  0.28736062  0.13424182    -0.86200
O1190       O  0.23481575  0.28885018  0.07974735    -0.83300
C1191       C  0.22531084  0.28221552  0.05698241     0.97300
O1192       O  0.19999288  0.27605582  0.05544417    -0.83300
O1193       O  0.19562679  0.22466606  0.08086898    -0.85900
C1194       C  0.19726849  0.20748662  0.10031637     1.01800
O1195       O  0.18997312  0.21413112  0.12411538    -0.78700
O1196       O  0.23500946  0.24368267  0.14051979    -0.78900
C1197       C  0.25021493  0.26422092  0.14199540     1.01700
O1198       O  0.19290101  0.31413564  0.14209140    -0.86200
O1199       O  0.18457334  0.31997220  0.08908768    -0.83300
C1200       C  0.15981840  0.31682402  0.09510171     0.97300
O1201       O  0.15069340  0.29298669  0.09168084    -0.83300
O1202       O  0.14516570  0.23997681  0.10843646    -0.85900
C1203       C  0.13912241  0.24421154  0.13336779     1.01700
O1204       O  0.15661666  0.25429817  0.14907405    -0.78700
O1205       O  0.20196665  0.28020320  0.16922918    -0.78900
C1206       C  0.19734267  0.30504103  0.16536548     1.01700
Cr1207     Cr  0.21253980  0.30035720  0.11115426     1.93700
Cr1208     Cr  0.17422265  0.25939597  0.08529279     1.93200
Cr1209     Cr  0.19565732  0.24942441  0.14329118     1.39100
O1210       O  0.19485493  0.26921137  0.11297181    -1.24000
O1211       O  0.07995789  0.49387584  0.17975388    -0.86200
O1212       O  0.08554034  0.44664996  0.20818637    -0.83300
C1213       C  0.06352345  0.45202933  0.22008871     0.97300
O1214       O  0.04298463  0.43961823  0.21095277    -0.83300
O1215       O  0.00209044  0.43381468  0.17194507    -0.85900
C1216       C  0.99343691  0.45753753  0.16619302     1.01800
O1217       O  0.01003851  0.47524808  0.15830172    -0.78700
O1218       O  0.05665190  0.50088581  0.14229843    -0.78900
C1219       C  0.07052867  0.50971501  0.16199103     1.01700
O1220       O  0.10249426  0.46964384  0.13255865    -0.86200
O1221       O  0.10566399  0.42146775  0.15698820    -0.83300
C1222       C  0.09742047  0.39785704  0.16215505     0.97300
O1223       O  0.07613018  0.39538985  0.17720279    -0.83300
O1224       O  0.03573184  0.39836673  0.14067584    -0.85900
C1225       C  0.02372117  0.40789111  0.12011950     1.01700
O1226       O  0.01956631  0.43323676  0.11812404    -0.78700
O1227       O  0.06812678  0.45808965  0.10683910    -0.78900
C1228       C  0.09229482  0.46554898  0.10947909     1.01700
Cr1229     Cr  0.09071975  0.45676112  0.16900405     1.93700
Cr1230     Cr  0.04092319  0.41883967  0.17508259     1.93200
Cr1231     Cr  0.03980173  0.46535479  0.13352152     1.39100
O1232       O  0.05723965  0.44682208  0.15879762    -1.24000
O1233       O  0.38368738  0.40489266  0.07133954    -0.86200
O1234       O  0.33285105  0.41430072  0.08696718    -0.83300
C1235       C  0.34174181  0.42170061  0.11022158     0.97300
O1236       O  0.34086927  0.44708323  0.11483698    -0.83300
O1237       O  0.36204683  0.49981013  0.10582110    -0.85900
C1238       C  0.38592981  0.49390593  0.11279394     1.01800
O1239       O  0.39614091  0.47316755  0.10263371    -0.78700
O1240       O  0.41462409  0.43639182  0.06745500    -0.78900
C1241       C  0.40779287  0.41227511  0.07216970     1.01700
O1242       O  0.37609903  0.42660014  0.01930536    -0.86200
O1243       O  0.32394548  0.43874413  0.03141551    -0.83300
C1244       C  0.30273339  0.44856281  0.04116794     0.97300
O1245       O  0.30360906  0.45630657  0.06597395    -0.83300
O1246       O  0.33482203  0.50305764  0.05406664    -0.85900
C1247       C  0.35652774  0.51538216  0.04724158     1.01700
O1248       O  0.37906607  0.50750544  0.05635973    -0.78700
O1249       O  0.39476805  0.46716543  0.02313222    -0.78900
C1250       C  0.39064504  0.44563281  0.01006834     1.01700
Cr1251     Cr  0.35400213  0.42348208  0.05311236     1.93700
Cr1252     Cr  0.33648417  0.47479616  0.08420327     1.93200
Cr1253     Cr  0.39382700  0.47027683  0.06281006     1.39100
O1254       O  0.36156208  0.45624419  0.06572561    -1.24000
O1255       O  0.36798974  0.27888550  0.18867624    -0.86200
O1256       O  0.39660773  0.32310313  0.17609532    -0.83300
C1257       C  0.40594674  0.34636299  0.18054995     0.97300
O1258       O  0.42287439  0.34943246  0.20036324    -0.83300
O1259       O  0.39204386  0.35447781  0.24495664    -0.85900
C1260       C  0.37151173  0.34927993  0.25931272     1.01800
O1261       O  0.36701320  0.32507449  0.26720107    -0.78700
O1262       O  0.34672904  0.30004079  0.22140750    -0.78900
C1263       C  0.34647080  0.28760428  0.19908345     1.01700
O1264       O  0.41487398  0.25300917  0.20915447    -0.86200
O1265       O  0.44641386  0.29584972  0.19189774    -0.83300
C1266       C  0.46146006  0.29142230  0.21221011     0.97300
O1267       O  0.45559140  0.30454259  0.23352475    -0.83300
O1268       O  0.42420319  0.31532764  0.27792746    -0.85900
C1269       C  0.41759327  0.29189530  0.28715545     1.01700
O1270       O  0.40112628  0.27732305  0.27436098    -0.78700
O1271       O  0.37690060  0.25166734  0.23203830    -0.78900
C1272       C  0.39519998  0.23977650  0.21844091     1.01700
Cr1273     Cr  0.40643644  0.28891314  0.19378485     1.93700
Cr1274     Cr  0.42277795  0.32923868  0.23812023     1.93200
Cr1275     Cr  0.37508729  0.28976531  0.24747152     1.39100
O1276       O  0.40114378  0.30305157  0.22648867    -1.24000
O1277       O  0.46497999  0.47814517  0.87142922    -0.86200
O1278       O  0.46218617  0.45866126  0.82150982    -0.83300
C1279       C  0.47196076  0.44832938  0.80047724     0.97300
O1280       O  0.48325043  0.42466505  0.80209386    -0.83300
O1281       O  0.53279271  0.42752229  0.82884714    -0.85900
C1282       C  0.54900392  0.43375522  0.84783332     1.01800
O1283       O  0.54224184  0.42909445  0.87204073    -0.78700
O1284       O  0.50936163  0.47468961  0.87249711    -0.78900
C1285       C  0.48832788  0.48885530  0.87345042     1.01700
O1286       O  0.44357040  0.42627906  0.89154510    -0.86200
O1287       O  0.43715375  0.40814010  0.84080010    -0.83300
C1288       C  0.44397341  0.38409274  0.84687228     0.97300
O1289       O  0.46868887  0.37820580  0.84442010    -0.83300
O1290       O  0.51792503  0.38103879  0.86729285    -0.85900
C1291       C  0.51289868  0.38175284  0.89311866     1.01700
O1292       O  0.50384600  0.40296424  0.90375326    -0.78700
O1293       O  0.47539965  0.44894579  0.91144545    -0.78900
C1294       C  0.45261803  0.43759110  0.91237407     1.01700
Cr1295     Cr  0.45418011  0.44166089  0.85636708     1.93700
Cr1296     Cr  0.49973187  0.40422448  0.83645990     1.93200
Cr1297     Cr  0.50649759  0.43831583  0.88777550     1.39100
O1298       O  0.48691355  0.42808334  0.85970051    -1.24000
O1299       O  0.26223413  0.31139339  0.92727441    -0.86200
O1300       O  0.31137874  0.31223600  0.95271624    -0.83300
C1301       C  0.30365157  0.29022109  0.96349451     0.97300
O1302       O  0.31027285  0.26881242  0.95082141    -0.83300
O1303       O  0.30924696  0.23130964  0.90785175    -0.85900
C1304       C  0.28503358  0.22673285  0.90000184     1.01800
O1305       O  0.27096816  0.24624467  0.89229129    -0.78700
O1306       O  0.25118408  0.29627861  0.88667578    -0.78900
C1307       C  0.24471309  0.30637925  0.90945554     1.01700
O1308       O  0.28335783  0.33907214  0.88184980    -0.86200
O1309       O  0.33454605  0.33383921  0.90123392    -0.83300
C1310       C  0.35664396  0.32124848  0.90317854     0.97300
O1311       O  0.35699543  0.29929956  0.91766062    -0.83300
O1312       O  0.34980925  0.26225894  0.87866307    -0.85900
C1313       C  0.33896049  0.25548964  0.85637024     1.01700
O1314       O  0.31346863  0.25701788  0.85364398    -0.78700
O1315       O  0.29451873  0.30948639  0.85092390    -0.78900
C1316       C  0.28539974  0.33239363  0.85728469     1.01700
Cr1317     Cr  0.29886498  0.32155703  0.91493934     1.93700
Cr1318     Cr  0.32985155  0.26722059  0.91387285     1.93200
Cr1319     Cr  0.28428051  0.27797143  0.87290658     1.39100
O1320       O  0.30453008  0.28877843  0.90020756    -1.24000
O1321       O  0.30879764  0.08213594  0.24033128    -0.86200
O1322       O  0.32018799  0.04682864  0.19715373    -0.83300
C1323       C  0.29869775  0.03610116  0.20510348     0.97300
O1324       O  0.27771322  0.04622023  0.19468906    -0.83300
O1325       O  0.24023277  0.08633891  0.18300849    -0.85900
C1326       C  0.23289012  0.10423678  0.20041966     1.01800
O1327       O  0.24997015  0.11859435  0.21275762    -0.78700
O1328       O  0.29777168  0.12554644  0.23832797    -0.78900
C1329       C  0.30289967  0.10400265  0.25200302     1.01700
O1330       O  0.34235385  0.12211576  0.21447252    -0.86200
O1331       O  0.34370219  0.09117875  0.17088814    -0.83300
C1332       C  0.33601164  0.08590635  0.14730349     0.97300
O1333       O  0.31354555  0.07247801  0.14409046    -0.83300
O1334       O  0.27088336  0.10474412  0.13739860    -0.85900
C1335       C  0.26406308  0.12904191  0.14057720     1.01700
O1336       O  0.26907167  0.14117318  0.16276035    -0.78700
O1337       O  0.31949567  0.14651347  0.18608292    -0.78900
C1338       C  0.34101658  0.14263011  0.19907026     1.01700
Cr1339     Cr  0.32617685  0.08597501  0.20473898     1.93700
Cr1340     Cr  0.27752515  0.07762727  0.16673316     1.93200
Cr1341     Cr  0.28510991  0.13077658  0.19922887     1.39100
O1342       O  0.29558800  0.09830851  0.18990588    -1.24000
O1343       O  0.50266124  0.16193788  0.05530810    -0.86200
O1344       O  0.45811456  0.19212483  0.06815405    -0.83300
C1345       C  0.46304789  0.20685953  0.04755356     0.97300
O1346       O  0.45192482  0.19996448  0.02514845    -0.83300
O1347       O  0.44183223  0.16357196  0.98051586    -0.85900
C1348       C  0.46496386  0.15552822  0.97231216     1.01800
O1349       O  0.48198242  0.14899306  0.98980907    -0.78700
O1350       O  0.50532380  0.12403532  0.03238518    -0.78900
C1351       C  0.51635857  0.14264084  0.04607647     1.01700
O1352       O  0.47676450  0.11398116  0.07489097    -0.86200
O1353       O  0.43118473  0.14148904  0.08273932    -0.83300
C1354       C  0.40825531  0.15048306  0.07662880     0.97300
O1355       O  0.40622596  0.16775199  0.05690241    -0.83300
O1356       O  0.40350791  0.13392902  0.01359467    -0.85900
C1357       C  0.41114595  0.11412134  0.99924709     1.01700
O1358       O  0.43578041  0.11160059  0.99349463    -0.78700
O1359       O  0.45808728  0.09249184  0.04081508    -0.78900
C1360       C  0.46812385  0.09231819  0.06442245     1.01700
Cr1361     Cr  0.46606912  0.15233705  0.06800819     1.93700
Cr1362     Cr  0.42771201  0.16615617  0.02033102     1.93200
Cr1363     Cr  0.46920886  0.12110218  0.01513336     1.39100
O1364       O  0.45382747  0.14615210  0.03469548    -1.24000
O1365       O  0.43810930  0.01535697  0.37836389    -0.86200
O1366       O  0.42714567  0.06634040  0.36008581    -0.83300
C1367       C  0.43117980  0.09087027  0.35387461     0.97300
O1368       O  0.44983586  0.09612709  0.33618166    -0.83300
O1369       O  0.49245721  0.09769259  0.37005082    -0.85900
C1370       C  0.50531552  0.08867568  0.39036272     1.01800
O1371       O  0.51359686  0.06422779  0.39080183    -0.78700
O1372       O  0.47068008  0.03218323  0.40281933    -0.78900
C1373       C  0.44787630  0.02099278  0.40130185     1.01700
O1374       O  0.45999761  0.00139763  0.32707594    -0.86200
O1375       O  0.44390983  0.04921382  0.30488611    -0.83300
C1376       C  0.46467603  0.04606136  0.29020235     0.97300
O1377       O  0.48582325  0.05839369  0.29809015    -0.83300
O1378       O  0.52848404  0.06889277  0.33466414    -0.85900
C1379       C  0.54103444  0.04672953  0.33896718     1.01700
O1380       O  0.52808544  0.02633506  0.34741888    -0.78700
O1381       O  0.48524123  0.99289558  0.36288433    -0.78900
C1382       C  0.47083379  0.98470459  0.34305700     1.01700
Cr1383     Cr  0.44451905  0.03438312  0.34292883     1.93700
Cr1384     Cr  0.48805202  0.07813128  0.33484600     1.93200
Cr1385     Cr  0.49812429  0.03017372  0.37402167     1.39100
O1386       O  0.47705621  0.04768585  0.35098352    -1.24000
O1387       O  0.32157553  0.15107966  0.37363550    -0.86200
O1388       O  0.33666005  0.16167065  0.42450723    -0.83300
C1389       C  0.36060296  0.16768404  0.41724552     0.97300
O1390       O  0.36650533  0.19268997  0.41761527    -0.83300
O1391       O  0.36678189  0.24012711  0.38929799    -0.85900
C1392       C  0.37393698  0.23377913  0.36542904     1.01800
O1393       O  0.35949613  0.21694838  0.35213750    -0.78700
O1394       O  0.31704597  0.17956183  0.33973418    -0.78900
C1395       C  0.31894122  0.15579050  0.34879663     1.01700
O1396       O  0.27179297  0.17809484  0.37968547    -0.86200
O1397       O  0.28383870  0.19071846  0.43104658    -0.83300
C1398       C  0.29251947  0.20449197  0.45056757     0.97300
O1399       O  0.31669128  0.21375416  0.44955513    -0.83300
O1400       O  0.31730465  0.25805327  0.41116161    -0.85900
C1401       C  0.31545120  0.26849128  0.38731785     1.01700
O1402       O  0.31844473  0.25379721  0.36670228    -0.78700
O1403       O  0.27846657  0.21665894  0.35785538    -0.78900
C1404       C  0.26327753  0.19702265  0.36462894     1.01700
Cr1405     Cr  0.30496587  0.17323217  0.40182261     1.93700
Cr1406     Cr  0.33998359  0.22393195  0.41574615     1.93200
Cr1407     Cr  0.31879414  0.21564841  0.35713015     1.39100
O1408       O  0.32064135  0.20456244  0.39152293    -1.24000
O1409       O  0.49098923  0.86137807  0.41804576    -0.86200
O1410       O  0.47845781  0.81208559  0.43864045    -0.83300
C1411       C  0.47114098  0.79451363  0.45584972     0.97300
O1412       O  0.44811904  0.79783961  0.46724807    -0.83300
O1413       O  0.46110633  0.83906843  0.50451953    -0.85900
C1414       C  0.46761965  0.86256694  0.51300241     1.01800
O1415       O  0.45950038  0.88364997  0.50047695    -0.78700
O1416       O  0.49018423  0.88768712  0.45439748    -0.78900
C1417       C  0.50181121  0.87876268  0.43339452     1.01700
O1418       O  0.43862719  0.86896370  0.39738335    -0.86200
O1419       O  0.42117978  0.82096945  0.41880151    -0.83300
C1420       C  0.39941101  0.83121787  0.42809052     0.97300
O1421       O  0.39747522  0.83216052  0.45377726    -0.83300
O1422       O  0.40919189  0.86447355  0.49728235    -0.85900
C1423       C  0.40039007  0.88673043  0.48774852     1.01700
O1424       O  0.41218301  0.89647189  0.46716575    -0.78700
O1425       O  0.44635972  0.90447890  0.42286409    -0.78900
C1426       C  0.44194174  0.89412337  0.39980931     1.01700
Cr1427     Cr  0.45623358  0.84138473  0.42095880     1.93700
Cr1428     Cr  0.43022351  0.83438479  0.47830405     1.93200
Cr1429     Cr  0.45131127  0.89012563  0.46069971     1.39100
O1430       O  0.44655899  0.85541065  0.45319565    -1.24000
O1431       O  0.30473655  0.91379546  0.26158884    -0.86200
O1432       O  0.32089884  0.94619499  0.30503618    -0.83300
C1433       C  0.29914378  0.95786954  0.29927730     0.97300
O1434       O  0.27867617  0.94930247  0.31200892    -0.83300
O1435       O  0.23928549  0.91235674  0.32710027    -0.85900
C1436       C  0.22943671  0.89678662  0.30883348     1.01800
O1437       O  0.24443884  0.88164064  0.29496264    -0.78700
O1438       O  0.28771215  0.87229157  0.26419158    -0.78900
C1439       C  0.29473308  0.89306446  0.25032021     1.01700
O1440       O  0.33590278  0.87123232  0.28222973    -0.86200
O1441       O  0.34348131  0.89863088  0.32926234    -0.83300
C1442       C  0.33699591  0.90381069  0.35345751     0.97300
O1443       O  0.31686192  0.92007555  0.35760029    -0.83300
O1444       O  0.27413735  0.88909117  0.36752976    -0.85900
C1445       C  0.26692294  0.86482109  0.36443278     1.01700
O1446       O  0.26738697  0.85386722  0.34111883    -0.78700
O1447       O  0.31332040  0.84648471  0.31091580    -0.78900
C1448       C  0.33147081  0.84862370  0.29313833     1.01700
Cr1449     Cr  0.32393990  0.90723309  0.29617786     1.93700
Cr1450     Cr  0.27891702  0.91735898  0.33893714     1.93200
Cr1451     Cr  0.27928502  0.86572095  0.30366070     1.39100
O1452       O  0.29342714  0.89665107  0.31314413    -1.24000
O1453       O  0.13008636  0.56778478  0.57968411    -0.86200
O1454       O  0.18070014  0.56629371  0.59566706    -0.83300
C1455       C  0.17061760  0.55797730  0.61796272     0.97300
O1456       O  0.17131542  0.53245455  0.62168705    -0.83300
O1457       O  0.15058060  0.48218163  0.61300081    -0.85900
C1458       C  0.12493250  0.48437159  0.61411732     1.01800
O1459       O  0.11239768  0.49876820  0.59688261    -0.78700
O1460       O  0.10531310  0.53894547  0.55771641    -0.78900
C1461       C  0.10759692  0.56061906  0.57111279     1.01700
O1462       O  0.14338349  0.55214556  0.52524786    -0.86200
O1463       O  0.19525173  0.54653760  0.54079520    -0.83300
C1464       C  0.21550683  0.53419655  0.54983338     0.97300
O1465       O  0.21343745  0.52123478  0.57280439    -0.83300
O1466       O  0.18385148  0.47178135  0.56559058    -0.85900
C1467       C  0.16329969  0.45790072  0.55795264     1.01700
O1468       O  0.14008464  0.46769129  0.55970547    -0.78700
O1469       O  0.13948655  0.50802181  0.52244940    -0.78900
C1470       C  0.13752313  0.53103598  0.51187652     1.01700
Cr1471     Cr  0.16233085  0.55550257  0.56104486     1.93700
Cr1472     Cr  0.17923563  0.50371118  0.59208580     1.93200
Cr1473     Cr  0.12656570  0.50480995  0.55987873     1.39100
O1474       O  0.15632506  0.52093656  0.57084150    -1.24000
O1475       O  0.13210967  0.71558419  0.66585528    -0.86200
O1476       O  0.11172240  0.66582327  0.66712654    -0.83300
C1477       C  0.10830052  0.64326322  0.67868522     0.97300
O1478       O  0.09100966  0.64225226  0.69826377    -0.83300
O1479       O  0.12666480  0.65066522  0.73776417    -0.85900
C1480       C  0.14571915  0.66262407  0.74984984     1.01800
O1481       O  0.14438464  0.68816553  0.75322823    -0.78700
O1482       O  0.15737221  0.70776236  0.70167653    -0.78900
C1483       C  0.15504469  0.71374273  0.67678470     1.01700
O1484       O  0.08300862  0.73860409  0.68441920    -0.86200
O1485       O  0.05736669  0.69058723  0.68363790    -0.83300
C1486       C  0.04511089  0.69727603  0.70542323     0.97300
O1487       O  0.05449001  0.68677012  0.72706219    -0.83300
O1488       O  0.09207827  0.68767472  0.76811349    -0.85900
C1489       C  0.09433654  0.71286807  0.77339533     1.01700
O1490       O  0.10243321  0.72870324  0.75493734    -0.78700
O1491       O  0.12000224  0.75030401  0.70590662    -0.78900
C1492       C  0.10043637  0.75615684  0.69025324     1.01700
Cr1493     Cr  0.09623512  0.70159987  0.67767111     1.93700
Cr1494     Cr  0.09117585  0.66850008  0.73109511     1.93200
Cr1495     Cr  0.12925299  0.71719084  0.72809921     1.39100
O1496       O  0.10581514  0.69571837  0.71222649    -1.24000
O1497       O  0.86235941  0.79167743  0.67981390    -0.86200
O1498       O  0.90315278  0.82540641  0.66952794    -0.83300
C1499       C  0.91139097  0.84850777  0.67698575     0.97300
O1500       O  0.92511235  0.85049781  0.69934870    -0.83300
O1501       O  0.89626413  0.85828771  0.74390924    -0.85900
C1502       C  0.87412449  0.85665994  0.75651273     1.01800
O1503       O  0.86491544  0.83366142  0.76221812    -0.78700
O1504       O  0.84724614  0.82011101  0.71027121    -0.78900
C1505       C  0.84453551  0.80815584  0.68780989     1.01700
O1506       O  0.89845067  0.75423698  0.70711529    -0.86200
O1507       O  0.94184036  0.78421628  0.68954896    -0.83300
C1508       C  0.95827807  0.78442544  0.70924570     0.97300
O1509       O  0.95324394  0.80033802  0.72902108    -0.83300
O1510       O  0.91971091  0.80838626  0.77350161    -0.85900
C1511       C  0.90524537  0.78783897  0.78131497     1.01700
O1512       O  0.88488577  0.78052823  0.76782261    -0.78700
O1513       O  0.85867635  0.76505091  0.72240365    -0.78900
C1514       C  0.87566643  0.74723400  0.71632669     1.01700
Cr1515     Cr  0.90160148  0.79030284  0.68921293     1.93700
Cr1516     Cr  0.92237284  0.82774937  0.73538294     1.93200
Cr1517     Cr  0.86662338  0.80060669  0.73911864     1.39100
O1518       O  0.89740706  0.80634051  0.72143749    -1.24000
O1519       O  0.88899287  0.92663825  0.57236914    -0.86200
O1520       O  0.83850078  0.92402179  0.58821088    -0.83300
C1521       C  0.84714737  0.92944099  0.61206337     0.97300
O1522       O  0.84403010  0.95384474  0.61941186    -0.83300
O1523       O  0.86345651  0.00606418  0.61814876    -0.85900
C1524       C  0.88864859  0.00121273  0.62170782     1.01800
O1525       O  0.90094151  0.98752026  0.60414153    -0.78700
O1526       O  0.91537056  0.95913242  0.55834804    -0.78900
C1527       C  0.91166604  0.93470280  0.56503732     1.01700
O1528       O  0.87618761  0.95125651  0.52091407    -0.86200
O1529       O  0.82318978  0.95132947  0.53593277    -0.83300
C1530       C  0.80195316  0.96004268  0.54684504     0.97300
O1531       O  0.80322743  0.96831641  0.57183357    -0.83300
O1532       O  0.83042093  0.01755370  0.56907348    -0.85900
C1533       C  0.84984191  0.03345192  0.56345482     1.01700
O1534       O  0.87361864  0.02740341  0.57082035    -0.78700
O1535       O  0.88389941  0.99498535  0.52682306    -0.78900
C1536       C  0.88378765  0.97426804  0.51196037     1.01700
Cr1537     Cr  0.85666414  0.94052449  0.55533012     1.93700
Cr1538     Cr  0.83625778  0.98523300  0.59338082     1.93200
Cr1539     Cr  0.89123086  0.99107331  0.56561090     1.39100
O1540       O  0.86101556  0.97259884  0.57070867    -1.24000
O1541       O  0.64978333  0.80199101  0.32231405    -0.86200
O1542       O  0.60091557  0.81802906  0.33564727    -0.83300
C1543       C  0.60573905  0.84277537  0.32998434     0.97300
O1544       O  0.59979173  0.85093394  0.30599830    -0.83300
O1545       O  0.61160502  0.85457400  0.25132623    -0.85900
C1546       C  0.63707629  0.85817382  0.25255859     1.01800
O1547       O  0.65194400  0.83939668  0.26126226    -0.78700
O1548       O  0.67003091  0.79197110  0.28418717    -0.78900
C1549       C  0.67087821  0.79801748  0.30903511     1.01700
O1550       O  0.63106204  0.75361538  0.29673274    -0.86200
O1551       O  0.57886859  0.76952191  0.30549008    -0.83300
C1552       C  0.55715157  0.78110892  0.29871689     0.97300
O1553       O  0.55791837  0.80638811  0.29273742    -0.83300
O1554       O  0.57799707  0.80572131  0.24033367    -0.85900
C1555       C  0.59497993  0.80073007  0.22166061     1.01700
O1556       O  0.61886253  0.80900895  0.22458654    -0.78700
O1557       O  0.63255539  0.76242402  0.25266889    -0.78900
C1558       C  0.63428000  0.74592185  0.27231253     1.01700
Cr1559     Cr  0.61469448  0.78705972  0.31266152     1.93700
Cr1560     Cr  0.58822094  0.82803549  0.27347297     1.93200
Cr1561     Cr  0.64123292  0.80103835  0.25745261     1.39100
O1562       O  0.61451930  0.80503286  0.28119105    -1.24000
O1563       O  0.62440311  0.92216671  0.43524442    -0.86200
O1564       O  0.67607912  0.91777588  0.42198898    -0.83300
C1565       C  0.66833361  0.92362867  0.39796261     0.97300
O1566       O  0.67108613  0.94845606  0.39090742    -0.83300
O1567       O  0.65438227  0.00295294  0.39312721    -0.85900
C1568       C  0.62861719  0.00287655  0.39088758     1.01800
O1569       O  0.61461514  0.98914456  0.40738489    -0.78700
O1570       O  0.60028503  0.95556527  0.45036420    -0.78900
C1571       C  0.60178888  0.93271131  0.43900827     1.01700
O1572       O  0.63703902  0.94408362  0.48841667    -0.86200
O1573       O  0.69057353  0.94431222  0.47456104    -0.83300
C1574       C  0.71201837  0.95414427  0.46461797     0.97300
O1575       O  0.71168509  0.96199936  0.43943818    -0.83300
O1576       O  0.68683979  0.01195268  0.44235082    -0.85900
C1577       C  0.66783628  0.02803609  0.44856959     1.01700
O1578       O  0.64397458  0.02218371  0.44242533    -0.78700
O1579       O  0.63450639  0.98829277  0.48401516    -0.78900
C1580       C  0.63279257  0.96738176  0.49836150     1.01700
Cr1581     Cr  0.65710957  0.93438047  0.45408521     1.93700
Cr1582     Cr  0.67988057  0.97986334  0.41741607     1.93200
Cr1583     Cr  0.62546421  0.98706807  0.44564494     1.39100
O1584       O  0.65433360  0.96727770  0.43918159    -1.24000
O1585       O  0.57011069  0.98937815  0.67455363    -0.86200
O1586       O  0.57669867  0.94058383  0.70050803    -0.83300
C1587       C  0.55448023  0.94509824  0.71245167     0.97300
O1588       O  0.53355792  0.93422925  0.70217198    -0.83300
O1589       O  0.49411325  0.92814257  0.66096756    -0.85900
C1590       C  0.48592044  0.95176327  0.65454181     1.01800
O1591       O  0.50303663  0.97007696  0.65026982    -0.78700
O1592       O  0.54905025  0.99772536  0.63605763    -0.78900
C1593       C  0.56170857  0.00598238  0.65692125     1.01700
O1594       O  0.59461997  0.96866764  0.62620150    -0.86200
O1595       O  0.59687953  0.91909625  0.64799276    -0.83300
C1596       C  0.58878304  0.89528952  0.65225848     0.97300
O1597       O  0.56849850  0.89206735  0.66842353    -0.83300
O1598       O  0.52913782  0.89395866  0.63064772    -0.85900
C1599       C  0.51776138  0.90427034  0.61005233     1.01700
O1600       O  0.51437967  0.92957335  0.60853744    -0.78700
O1601       O  0.56209836  0.95511618  0.59942699    -0.78900
C1602       C  0.58544810  0.96474934  0.60260889     1.01700
Cr1603     Cr  0.58221570  0.95324593  0.66197024     1.93700
Cr1604     Cr  0.53293632  0.91417074  0.66571602     1.93200
Cr1605     Cr  0.53304390  0.96179841  0.62551175     1.39100
O1606       O  0.54943716  0.94290735  0.65072549    -1.24000
O1607       O  0.73584185  0.81279396  0.61636063    -0.86200
O1608       O  0.72456987  0.79779446  0.56380190    -0.83300
C1609       C  0.71488156  0.78541265  0.54358440     0.97300
O1610       O  0.69030936  0.77679763  0.54536802    -0.83300
O1611       O  0.69799889  0.73239002  0.57981531    -0.85900
C1612       C  0.70531072  0.72069025  0.60171144     1.01800
O1613       O  0.69902930  0.73051379  0.62488479    -0.78700
O1614       O  0.73341909  0.77220569  0.63515447    -0.78900
C1615       C  0.74576992  0.79405804  0.63070193     1.01700
O1616       O  0.68445596  0.83434779  0.62331760    -0.86200
O1617       O  0.66981651  0.82175363  0.57134879    -0.83300
C1618       C  0.64668474  0.81598527  0.58107674     0.97300
O1619       O  0.64123682  0.79087768  0.58266586    -0.83300
O1620       O  0.64816119  0.74044797  0.60917563    -0.85900
C1621       C  0.64264068  0.74655897  0.63384170     1.01700
O1622       O  0.65513683  0.76601225  0.64426041    -0.78700
O1623       O  0.69191664  0.80500660  0.65611605    -0.78900
C1624       C  0.68642558  0.82874243  0.64823246     1.01700
Cr1625     Cr  0.70263602  0.81414318  0.59392271     1.93700
Cr1626     Cr  0.67042683  0.76205507  0.58035808     1.93200
Cr1627     Cr  0.69431636  0.76923842  0.63741505     1.39100
O1628       O  0.68986012  0.78166380  0.60398284    -1.24000
O1629       O  0.35341574  0.61711429  0.82424810    -0.86200
O1630       O  0.33506627  0.56719180  0.83820800    -0.83300
C1631       C  0.32825624  0.57489716  0.86203025     0.97300
O1632       O  0.30302148  0.57546743  0.86672804    -0.83300
O1633       O  0.25873849  0.60805740  0.86227503    -0.85900
C1634       C  0.26682281  0.63068568  0.87162340     1.01800
O1635       O  0.28766202  0.64132825  0.86104836    -0.78700
O1636       O  0.32741643  0.65285925  0.82173233    -0.78900
C1637       C  0.35030462  0.64231265  0.82458366     1.01700
O1638       O  0.32819620  0.61496726  0.77269637    -0.86200
O1639       O  0.31070709  0.56348036  0.78236608    -0.83300
C1640       C  0.29599615  0.54420112  0.79042755     0.97300
O1641       O  0.28534632  0.54609151  0.81413064    -0.83300
O1642       O  0.24715594  0.58946711  0.80704048    -0.85900
C1643       C  0.23896929  0.61399772  0.80456187     1.01700
O1644       O  0.25076622  0.63210684  0.81801038    -0.78700
O1645       O  0.29123207  0.63856929  0.78057781    -0.78900
C1646       C  0.31005996  0.63132883  0.76515138     1.01700
Cr1647     Cr  0.32931296  0.59126945  0.80573250     1.93700
Cr1648     Cr  0.27547150  0.58068801  0.83634824     1.93200
Cr1649     Cr  0.29022108  0.63841433  0.82039192     1.39100
O1650       O  0.29858929  0.60359615  0.82048459    -1.24000
O1651       O  0.48057241  0.61446153  0.91491683    -0.86200
O1652       O  0.43196386  0.63911239  0.91471959    -0.83300
C1653       C  0.40866306  0.64211130  0.92440843     0.97300
O1654       O  0.40610333  0.65695307  0.94605535    -0.83300
O1655       O  0.40577830  0.62425006  0.98891096    -0.85900
C1656       C  0.41130855  0.59995794  0.99431496     1.01800
O1657       O  0.43514746  0.59120988  0.99149882    -0.78700
O1658       O  0.45736434  0.58806736  0.94115288    -0.78900
C1659       C  0.47194770  0.59117125  0.92056424     1.01700
O1660       O  0.50283094  0.65837097  0.94417925    -0.86200
O1661       O  0.45736673  0.68858784  0.93539526    -0.83300
C1662       C  0.46388025  0.69986039  0.95747207     0.97300
O1663       O  0.45337618  0.68965998  0.97862394    -0.83300
O1664       O  0.44898361  0.65092021  0.01858494    -0.85900
C1665       C  0.46962397  0.63694672  0.02573758     1.01700
O1666       O  0.48089709  0.62133408  0.00911126    -0.78700
O1667       O  0.50617252  0.61660816  0.96045988    -0.78900
C1668       C  0.51700075  0.63845810  0.95137090     1.01700
Cr1669     Cr  0.46677461  0.64961101  0.92996542     1.93700
Cr1670     Cr  0.43038790  0.65519688  0.98115736     1.93200
Cr1671     Cr  0.46890672  0.60658742  0.97459401     1.39100
O1672       O  0.45541392  0.63722069  0.96268414    -1.24000
O1673       O  0.67990710  0.86246446  0.81780967    -0.86200
O1674       O  0.67794822  0.91259220  0.84031193    -0.83300
C1675       C  0.68896275  0.90154362  0.86060104     0.97300
O1676       O  0.71445075  0.90283782  0.86126861    -0.83300
O1677       O  0.76286431  0.88681364  0.84628547    -0.85900
C1678       C  0.76222495  0.86165729  0.84205345     1.01800
O1679       O  0.74944443  0.85160035  0.82210882    -0.78700
O1680       O  0.70668616  0.84485235  0.78741111    -0.78900
C1681       C  0.68830786  0.84222417  0.80487081     1.01700
O1682       O  0.68452108  0.88630580  0.76492686    -0.86200
O1683       O  0.69194756  0.93475536  0.78696957    -0.83300
C1684       C  0.70720609  0.95373255  0.79447309     0.97300
O1685       O  0.72122849  0.95082617  0.81640922    -0.83300
O1686       O  0.77105772  0.92644904  0.80537958    -0.85900
C1687       C  0.78387611  0.90949789  0.79077077     1.01700
O1688       O  0.77325531  0.88730159  0.78430503    -0.78700
O1689       O  0.72666293  0.88558872  0.75206202    -0.78900
C1690       C  0.70173007  0.88502411  0.74611112     1.01700
Cr1691     Cr  0.68640744  0.89907901  0.80308903     1.93700
Cr1692     Cr  0.74006158  0.91603360  0.83069924     1.93200
Cr1693     Cr  0.73792461  0.86966298  0.78796446     1.39100
O1694       O  0.72209230  0.89546707  0.80677418    -1.24000
O1695       O  0.53637285  0.87122966  0.92178630    -0.86200
O1696       O  0.58502361  0.84830263  0.91966196    -0.83300
C1697       C  0.60798584  0.84273152  0.92908995     0.97300
O1698       O  0.60939222  0.82627416  0.94950619    -0.83300
O1699       O  0.60630841  0.86167006  0.99167321    -0.85900
C1700       C  0.59676890  0.88209971  0.00389391     1.01800
O1701       O  0.57133054  0.88508733  0.00584319    -0.78700
O1702       O  0.54882910  0.89777013  0.95520395    -0.78900
C1703       C  0.54103605  0.89451211  0.93089691     1.01700
O1704       O  0.51239911  0.82404761  0.94384245    -0.86200
O1705       O  0.56048862  0.79639541  0.93748951    -0.83300
C1706       C  0.55368643  0.78345411  0.95870476     0.97300
O1707       O  0.56400255  0.79220895  0.98058473    -0.83300
O1708       O  0.56848370  0.82932811  0.02187845    -0.85900
C1709       C  0.54493103  0.83567682  0.02985675     1.01700
O1710       O  0.52840334  0.84598310  0.01328986    -0.78700
O1711       O  0.50457847  0.86226152  0.96508491    -0.78900
C1712       C  0.49621375  0.84227012  0.95120188     1.01700
Cr1713     Cr  0.54954782  0.83525811  0.93324435     1.93700
Cr1714     Cr  0.58519730  0.82776572  0.98416457     1.93200
Cr1715     Cr  0.53983832  0.87064380  0.98375197     1.39100
O1716       O  0.55842712  0.84500419  0.96712622    -1.24000
O1717       O  0.63177678  0.55183171  0.99527421    -0.86200
O1718       O  0.68520117  0.54762357  0.98405809    -0.83300
C1719       C  0.70724878  0.53977941  0.97434440     0.97300
O1720       O  0.70735898  0.53282312  0.94911136    -0.83300
O1721       O  0.67735520  0.48389709  0.95200873    -0.85900
C1722       C  0.65654292  0.46897397  0.95530440     1.01800
O1723       O  0.63398589  0.47607087  0.94523319    -0.78700
O1724       O  0.61819197  0.51010199  0.98624186    -0.78900
C1725       C  0.62056442  0.52977706  0.00244593     1.01700
O1726       O  0.62447690  0.57899256  0.94441336    -0.86200
O1727       O  0.67471529  0.57692776  0.93056292    -0.83300
C1728       C  0.66761809  0.57081974  0.90629930     0.97300
O1729       O  0.67216599  0.54653415  0.89939233    -0.83300
O1730       O  0.65178493  0.49434219  0.89942121    -0.85900
C1731       C  0.62760523  0.49893893  0.89162882     1.01700
O1732       O  0.61339025  0.51474053  0.90584052    -0.78700
O1733       O  0.59421137  0.54703929  0.94898745    -0.78900
C1734       C  0.60052885  0.57180620  0.94628849     1.01700
Cr1735     Cr  0.65412373  0.56144977  0.96243774     1.93700
Cr1736     Cr  0.67588458  0.51573513  0.92625637     1.93200
Cr1737     Cr  0.61734344  0.51332473  0.94628341     1.39100
O1738       O  0.64903342  0.53002808  0.94556992    -1.24000
O1739       O  0.63046621  0.72917046  0.81870927    -0.86200
O1740       O  0.57926948  0.71751627  0.81283948    -0.83300
C1741       C  0.55811692  0.70926208  0.80170814     0.97300
O1742       O  0.55767371  0.68479649  0.79298724    -0.83300
O1743       O  0.59029976  0.68708930  0.74566919    -0.85900
C1744       C  0.61172217  0.68999139  0.73146306     1.01800
O1745       O  0.63419607  0.68254284  0.74130536    -0.78700
O1746       O  0.64356068  0.72401430  0.77612664    -0.78900
C1747       C  0.64037868  0.73848499  0.79689337     1.01700
O1748       O  0.63947325  0.67806541  0.84542493    -0.86200
O1749       O  0.58818900  0.66457847  0.84146103    -0.83300
C1750       C  0.59527800  0.64077038  0.83492733     0.97300
O1751       O  0.59193522  0.63489865  0.80999195    -0.83300
O1752       O  0.61599030  0.63602280  0.76007333    -0.85900
C1753       C  0.63997487  0.62940001  0.76657500     1.01700
O1754       O  0.65374473  0.64511130  0.78154538    -0.78700
O1755       O  0.66917961  0.68960280  0.81487889    -0.78900
C1756       C  0.66301670  0.68463305  0.83947154     1.01700
Cr1757     Cr  0.60940530  0.69616717  0.82729861     1.93700
Cr1758     Cr  0.59008791  0.66204819  0.77871038     1.93200
Cr1759     Cr  0.64779708  0.68471839  0.77972359     1.39100
O1760       O  0.61567665  0.68135459  0.79506715    -1.24000
O1761       O  0.78356456  0.66103237  0.88555080    -0.86200
O1762       O  0.83245473  0.66086467  0.91236535    -0.83300
C1763       C  0.85586599  0.66897375  0.91870670     0.97300
O1764       O  0.85845300  0.69128131  0.93228776    -0.83300
O1765       O  0.86483816  0.73157136  0.89530379    -0.85900
C1766       C  0.86202704  0.73269806  0.86969907     1.01800
O1767       O  0.83966960  0.72683739  0.85867080    -0.78700
O1768       O  0.81068853  0.68095072  0.85773373    -0.78900
C1769       C  0.79357277  0.66285137  0.86218414     1.01700
O1770       O  0.76327995  0.69610598  0.92502621    -0.86200
O1771       O  0.80741721  0.68477673  0.95869340    -0.83300
C1772       C  0.80100360  0.70693134  0.96937285     0.97300
O1773       O  0.81063710  0.72781921  0.95766197    -0.83300
O1774       O  0.82256303  0.76433852  0.91488575    -0.85900
C1775       C  0.80661586  0.77130907  0.89567936     1.01700
O1776       O  0.79434272  0.75421280  0.88144882    -0.78700
O1777       O  0.76409587  0.70937974  0.88167815    -0.78900
C1778       C  0.75128366  0.70371270  0.90355234     1.01700
Cr1779     Cr  0.79823144  0.67813353  0.91971255     1.93700
Cr1780     Cr  0.83702738  0.72691211  0.92472560     1.93200
Cr1781     Cr  0.80293636  0.71712802  0.87241669     1.39100
O1782       O  0.81279928  0.70827229  0.90549602    -1.24000
O1783       O  0.92008301  0.52451487  0.88518511    -0.86200
O1784       O  0.91868610  0.57277480  0.86137316    -0.83300
C1785       C  0.92696527  0.59633341  0.85628599     0.97300
O1786       O  0.94798382  0.59919582  0.84109740    -0.83300
O1787       O  0.98802527  0.59520561  0.87709819    -0.85900
C1788       C  0.99891112  0.58571723  0.89827662     1.01800
O1789       O  0.00266992  0.56030307  0.90058596    -0.78700
O1790       O  0.95303977  0.53889395  0.91087938    -0.78900
C1791       C  0.92950182  0.52981887  0.90840639     1.01700
O1792       O  0.94235248  0.50134548  0.83704395    -0.86200
O1793       O  0.93698610  0.54882301  0.80969462    -0.83300
C1794       C  0.95879603  0.54345804  0.79740944     0.97300
O1795       O  0.97955404  0.55528845  0.80649403    -0.83300
O1796       O  0.01997186  0.55753702  0.84447754    -0.85900
C1797       C  0.02660131  0.53303748  0.84964306     1.01700
O1798       O  0.00988419  0.51735370  0.86092743    -0.78700
O1799       O  0.96181613  0.49349740  0.87639732    -0.78900
C1800       C  0.94803844  0.48532123  0.85607593     1.01700
Cr1801     Cr  0.93195803  0.53793629  0.84861382     1.93700
Cr1802     Cr  0.98231729  0.57493418  0.84265614     1.93200
Cr1803     Cr  0.98101827  0.52885028  0.88507082     1.39100
O1804       O  0.96525479  0.54734244  0.85887893    -1.24000
O1805       O  0.00262788  0.63405450  0.58830728    -0.86200
O1806       O  0.97692552  0.68047615  0.57757866    -0.83300
C1807       C  0.96749210  0.69638260  0.56020376     0.97300
O1808       O  0.94535481  0.69016298  0.54822622    -0.83300
O1809       O  0.96028859  0.65563199  0.50683136    -0.85900
C1810       C  0.96944423  0.63464705  0.49524453     1.01800
O1811       O  0.96684791  0.61195187  0.50684397    -0.78700
O1812       O  0.00114607  0.62406348  0.54527590    -0.78900
C1813       C  0.01414702  0.62602493  0.56663973     1.01700
O1814       O  0.95420535  0.61346872  0.61185787    -0.86200
O1815       O  0.92424054  0.65433785  0.60090526    -0.83300
C1816       C  0.90386902  0.64338370  0.58895538     0.97300
O1817       O  0.90191262  0.64623953  0.56333831    -0.83300
O1818       O  0.91596416  0.61848296  0.51936336    -0.85900
C1819       C  0.91534191  0.59348789  0.52609525     1.01700
O1820       O  0.93257752  0.58391116  0.54297966    -0.78700
O1821       O  0.97636190  0.58703658  0.58484145    -0.78900
C1822       C  0.96873956  0.59328064  0.60885666     1.01700
Cr1823     Cr  0.96333505  0.64564913  0.59176101     1.93700
Cr1824     Cr  0.93224372  0.65197568  0.53660655     1.93200
Cr1825     Cr  0.96807453  0.60340108  0.54652484     1.39100
O1826       O  0.95375837  0.63334705  0.55869061    -1.24000
O1827       O  0.80226186  0.60655708  0.75070994    -0.86200
O1828       O  0.80083632  0.55635404  0.72911150    -0.83300
C1829       C  0.78973731  0.53661533  0.71756434     0.97300
O1830       O  0.78059549  0.53962966  0.69310608    -0.83300
O1831       O  0.73357595  0.56742488  0.69838459    -0.85900
C1832       C  0.71818474  0.58629215  0.70573467     1.01800
O1833       O  0.72515325  0.61069413  0.70172662    -0.78700
O1834       O  0.75864560  0.61257527  0.74573120    -0.78900
C1835       C  0.77904734  0.61171845  0.76076631     1.01700
O1836       O  0.82724154  0.62533100  0.70015632    -0.86200
O1837       O  0.82787480  0.57657666  0.67807823    -0.83300
C1838       C  0.82041146  0.58433713  0.65432407     0.97300
O1839       O  0.79564476  0.58274544  0.64858614    -0.83300
O1840       O  0.74662586  0.60568775  0.65266965    -0.85900
C1841       C  0.75233694  0.63112451  0.65240052     1.01700
O1842       O  0.76427473  0.64132236  0.67249508    -0.78700
O1843       O  0.79513354  0.64902997  0.71849020    -0.78900
C1844       C  0.81944840  0.64698349  0.71047734     1.01700
Cr1845     Cr  0.81220090  0.59116936  0.71336090     1.93700
Cr1846     Cr  0.76540858  0.57490230  0.67465450     1.93200
Cr1847     Cr  0.76206350  0.62634659  0.70883749     1.39100
O1848       O  0.77990492  0.59725290  0.69899129    -1.24000
O1849       O  0.82902810  0.35161894  0.63632301    -0.86200
O1850       O  0.84001202  0.33414271  0.58496911    -0.83300
C1851       C  0.86274574  0.32623182  0.59375191     0.97300
O1852       O  0.86533591  0.30073428  0.59597446    -0.83300
O1853       O  0.85538658  0.25490037  0.62654415    -0.85900
C1854       C  0.86383700  0.26165177  0.65003598     1.01800
O1855       O  0.85294063  0.28162051  0.66186385    -0.78700
O1856       O  0.81935044  0.32657131  0.67193504    -0.78900
C1857       C  0.82691626  0.34888949  0.66163989     1.01700
O1858       O  0.77451135  0.33440951  0.63138331    -0.86200
O1859       O  0.78316718  0.31576908  0.58073975    -0.83300
C1860       C  0.78939916  0.30010952  0.56154226     0.97300
O1861       O  0.81229212  0.28800767  0.56323641    -0.83300
O1862       O  0.80239357  0.24808817  0.60332892    -0.85900
C1863       C  0.79666806  0.23883778  0.62695658     1.01700
O1864       O  0.80580728  0.25049002  0.64807660    -0.78700
O1865       O  0.77467141  0.29546016  0.65338543    -0.78900
C1866       C  0.76245177  0.31586852  0.64424534     1.01700
Cr1867     Cr  0.80771940  0.33140301  0.60908196     1.93700
Cr1868     Cr  0.83285060  0.27515219  0.59832179     1.93200
Cr1869     Cr  0.81369384  0.28943868  0.65606429     1.39100
O1870       O  0.81762725  0.29862124  0.62132614    -1.24000
O1871       O  0.94525448  0.47508791  0.63061151    -0.86200
O1872       O  0.93058403  0.42564158  0.65073320    -0.83300
C1873       C  0.93285405  0.40133417  0.65845994     0.97300
O1874       O  0.94995341  0.39587935  0.67770323    -0.83300
O1875       O  0.99496197  0.38679369  0.64836091    -0.85900
C1876       C  0.00765618  0.39270556  0.62679654     1.01800
O1877       O  0.01515389  0.41700401  0.62223327    -0.78700
O1878       O  0.97348370  0.45023187  0.60808496    -0.78900
C1879       C  0.95295106  0.46520602  0.60848440     1.01700
O1880       O  0.96773514  0.48935347  0.68096594    -0.86200
O1881       O  0.94558018  0.44361187  0.70446349    -0.83300
C1882       C  0.96497024  0.44844634  0.72022472     0.97300
O1883       O  0.98617468  0.43501873  0.71490912    -0.83300
O1884       O  0.03025478  0.41853666  0.68117346    -0.85900
C1885       C  0.04390712  0.43885547  0.67264482     1.01700
O1886       O  0.03212029  0.45833776  0.66130780    -0.78700
O1887       O  0.99286607  0.49144400  0.64400056    -0.78900
C1888       C  0.98241068  0.50263179  0.66471862     1.01700
Cr1889     Cr  0.94929459  0.45699454  0.66664675     1.93700
Cr1890     Cr  0.98930731  0.41123742  0.68036855     1.93200
Cr1891     Cr  0.00208131  0.45324809  0.63560500     1.39100
O1892       O  0.98056858  0.44018605  0.66055924    -1.24000
O1893       O  0.07002700  0.50717973  0.35185666    -0.86200
O1894       O  0.07653777  0.54842899  0.31566485    -0.83300
C1895       C  0.05544155  0.54324980  0.30185605     0.97300
O1896       O  0.03372400  0.55529961  0.30877178    -0.83300
O1897       O  0.99020501  0.56325310  0.34670786    -0.85900
C1898       C  0.98518150  0.53904835  0.35501536     1.01800
O1899       O  0.00505035  0.52463764  0.36059561    -0.78700
O1900       O  0.04833802  0.50721085  0.39040671    -0.78900
C1901       C  0.06212880  0.49499337  0.37286693     1.01700
O1902       O  0.08741985  0.54212067  0.39636845    -0.86200
O1903       O  0.09164325  0.58244511  0.36248334    -0.83300
C1904       C  0.08437549  0.60422421  0.35184490     0.97300
O1905       O  0.06352620  0.60426882  0.33610050    -0.83300
O1906       O  0.02283269  0.60562856  0.37324297    -0.85900
C1907       C  0.00911205  0.59799218  0.39361694     1.01700
O1908       O  0.00281114  0.57324468  0.39584975    -0.78700
O1909       O  0.05079953  0.55731419  0.41679311    -0.78900
C1910       C  0.07528960  0.55068064  0.41749339     1.01700
Cr1911     Cr  0.07907336  0.54599615  0.35653457     1.93700
Cr1912     Cr  0.02888325  0.58054956  0.34152535     1.93200
Cr1913     Cr  0.02758698  0.54150604  0.38887146     1.39100
O1914       O  0.04562971  0.55660633  0.36257580    -1.24000
O1915       O  0.23805941  0.69818121  0.37501349    -0.86200
O1916       O  0.22709834  0.69967748  0.42920925    -0.83300
C1917       C  0.21836992  0.70872830  0.45157616     0.97300
O1918       O  0.19422605  0.71874010  0.45172259    -0.83300
O1919       O  0.20036640  0.76992552  0.42996249    -0.85900
C1920       C  0.21003446  0.78609870  0.41226813     1.01800
O1921       O  0.20610802  0.78204119  0.38729588    -0.78700
O1922       O  0.24355224  0.74172985  0.37734481    -0.78900
C1923       C  0.25334906  0.71835690  0.37420806     1.01700
O1924       O  0.18545416  0.68462133  0.36115384    -0.86200
O1925       O  0.17366369  0.68010990  0.41754843    -0.83300
C1926       C  0.15059804  0.68639429  0.40926817     0.97300
O1927       O  0.14505533  0.71138664  0.41095340    -0.83300
O1928       O  0.15092669  0.76455047  0.39501694    -0.85900
C1929       C  0.14944400  0.76429199  0.36890865     1.01700
O1930       O  0.16831243  0.75440054  0.35496472    -0.78700
O1931       O  0.20565416  0.71799993  0.33987948    -0.78900
C1932       C  0.19551497  0.69452976  0.33952562     1.01700
Cr1933     Cr  0.20500503  0.69283776  0.39589333     1.93700
Cr1934     Cr  0.17371221  0.74002871  0.42068600     1.93200
Cr1935     Cr  0.20516021  0.74764761  0.36706747     1.39100
O1936       O  0.19461879  0.72716254  0.39458832    -1.24000
O1937       O  0.73157391  0.31584732  0.37920075    -0.86200
O1938       O  0.68171975  0.32392947  0.40056304    -0.83300
C1939       C  0.65799477  0.31943463  0.40868616     0.97300
O1940       O  0.65443377  0.30105561  0.42710874    -0.83300
O1941       O  0.65253672  0.25844681  0.39336163    -0.85900
C1942       C  0.66078915  0.24557298  0.37280958     1.01800
O1943       O  0.68537104  0.23797160  0.37122921    -0.78700
O1944       O  0.71508717  0.28228839  0.35574055    -0.78900
C1945       C  0.72587340  0.30542179  0.35640134     1.01700
O1946       O  0.74900744  0.29505275  0.43107911    -0.86200
O1947       O  0.70239393  0.30950266  0.45520713    -0.83300
C1948       C  0.70641980  0.28929879  0.47078367     0.97300
O1949       O  0.69520561  0.26732787  0.46322877    -0.83300
O1950       O  0.68516008  0.22349073  0.42679681    -0.85900
C1951       C  0.70817308  0.21313245  0.42176718     1.01700
O1952       O  0.72678029  0.22819643  0.41323757    -0.78700
O1953       O  0.75667848  0.27067872  0.39458317    -0.78900
C1954       C  0.76522205  0.28456218  0.41463756     1.01700
Cr1955     Cr  0.71499153  0.30897469  0.41623095     1.93700
Cr1956     Cr  0.67390333  0.26366259  0.42733681     1.93200
Cr1957     Cr  0.71968495  0.25584628  0.38553051     1.39100
O1958       O  0.70259458  0.27610452  0.40922882    -1.24000
O1959       O  0.60806787  0.42770414  0.37879069    -0.86200
O1960       O  0.58926129  0.40796513  0.33111326    -0.83300
C1961       C  0.58106541  0.38840005  0.34549859     0.97300
O1962       O  0.55638711  0.38927957  0.35234658    -0.83300
O1963       O  0.51791977  0.40883141  0.38654576    -0.85900
C1964       C  0.52888793  0.40912615  0.40995693     1.01800
O1965       O  0.54841701  0.42506712  0.41428019    -0.78700
O1966       O  0.59298683  0.45786819  0.40687436    -0.78900
C1967       C  0.60839830  0.43822153  0.40187667     1.01700
O1968       O  0.59842090  0.48274399  0.35930720    -0.86200
O1969       O  0.57422319  0.46249151  0.31507717    -0.83300
C1970       C  0.55364214  0.45529972  0.30175508     0.97300
O1971       O  0.53920419  0.43522198  0.31024650    -0.83300
O1972       O  0.50429570  0.45284918  0.35078466    -0.85900
C1973       C  0.49846852  0.46526564  0.37267605     1.01700
O1974       O  0.51472506  0.46525798  0.39239623    -0.78700
O1975       O  0.55920765  0.49456995  0.37608421    -0.78900
C1976       C  0.58093429  0.50073824  0.36407551     1.01700
Cr1977     Cr  0.59031285  0.44493260  0.34719506     1.93700
Cr1978     Cr  0.53174336  0.42260355  0.35006227     1.93200
Cr1979     Cr  0.55420354  0.45959197  0.39499249     1.39100
O1980       O  0.55825331  0.44281252  0.36369300    -1.24000
O1981       O  0.04652806  0.37604241  0.42113200    -0.86200
O1982       O  0.09061150  0.34485781  0.41896644    -0.83300
C1983       C  0.11245751  0.33721267  0.42956261     0.97300
O1984       O  0.11152676  0.32015062  0.44979667    -0.83300
O1985       O  0.11526712  0.35357439  0.49142868    -0.85900
C1986       C  0.10964213  0.37478666  0.50427552     1.01800
O1987       O  0.08488220  0.38235222  0.50578259    -0.78700
O1988       O  0.06428328  0.39854152  0.45499746    -0.78900
C1989       C  0.05699283  0.39733475  0.43000292     1.01700
O1990       O  0.01625146  0.33142402  0.44433912    -0.86200
O1991       O  0.05870125  0.29724626  0.43699225    -0.83300
C1992       C  0.05085523  0.28502694  0.45837456     0.97300
O1993       O  0.06097534  0.29334916  0.48065651    -0.83300
O1994       O  0.07048209  0.33180049  0.52383904    -0.85900
C1995       C  0.04711572  0.34214437  0.52832333     1.01700
O1996       O  0.03402084  0.34876423  0.50800071    -0.78700
O1997       O  0.01560550  0.37152792  0.46349681    -0.78900
C1998       C  0.00344315  0.35145202  0.45327163     1.01700
Cr1999     Cr  0.05402318  0.33751921  0.43270039     1.93700
Cr2000     Cr  0.08774735  0.32490425  0.48478695     1.93200
Cr2001     Cr  0.05088086  0.37364741  0.48247114     1.39100
O2002       O  0.06510139  0.34599126  0.46625415    -1.24000
O2003       O  0.17776598  0.36127908  0.31896555    -0.86200
O2004       O  0.17755786  0.41001992  0.34188694    -0.83300
C2005       C  0.19008128  0.39870233  0.36124249     0.97300
O2006       O  0.21543262  0.40153889  0.36121338    -0.83300
O2007       O  0.26313128  0.38474274  0.34456668    -0.85900
C2008       C  0.26192848  0.35917811  0.34172874     1.01800
O2009       O  0.24672745  0.34847043  0.32400371    -0.78700
O2010       O  0.20370442  0.34295142  0.28889794    -0.78900
C2011       C  0.18461488  0.34092651  0.30561696     1.01700
O2012       O  0.18337027  0.38467630  0.26590227    -0.86200
O2013       O  0.18836255  0.43371660  0.28761742    -0.83300
C2014       C  0.20472797  0.45230372  0.29331270     0.97300
O2015       O  0.21998752  0.44926165  0.31457338    -0.83300
O2016       O  0.26850173  0.42463297  0.30232034    -0.85900
C2017       C  0.28183115  0.40631535  0.29020619     1.01700
O2018       O  0.27174112  0.38327439  0.28663444    -0.78700
O2019       O  0.22617331  0.38378578  0.25531845    -0.78900
C2020       C  0.20177738  0.38157138  0.24845353     1.01700
Cr2021     Cr  0.18452888  0.39757948  0.30406718     1.93700
Cr2022     Cr  0.23935163  0.41451120  0.32954195     1.93200
Cr2023     Cr  0.23590447  0.36676658  0.28997180     1.39100
O2024       O  0.22037165  0.39346601  0.30746124    -1.24000
O2025       O  0.88180919  0.43453748  0.50427518    -0.86200
O2026       O  0.82885075  0.44115993  0.49133159    -0.83300
C2027       C  0.80714013  0.44945132  0.48132585     0.97300
O2028       O  0.80707474  0.45601846  0.45598341    -0.83300
O2029       O  0.83827137  0.50379864  0.46027990    -0.85900
C2030       C  0.86007946  0.51715622  0.46275810     1.01800
O2031       O  0.88169067  0.50767545  0.45316306    -0.78700
O2032       O  0.89644148  0.47561025  0.49351278    -0.78900
C2033       C  0.89422259  0.45641841  0.51012933     1.01700
O2034       O  0.88855908  0.40532290  0.45484538    -0.86200
O2035       O  0.83904060  0.41074640  0.43843287    -0.83300
C2036       C  0.84663572  0.41748670  0.41430468     0.97300
O2037       O  0.84222683  0.44184234  0.40741693    -0.83300
O2038       O  0.86607879  0.49346180  0.40826721    -0.85900
C2039       C  0.89025855  0.48619118  0.40283404     1.01700
O2040       O  0.89864088  0.46557831  0.41495152    -0.78700
O2041       O  0.91888668  0.43703646  0.45795390    -0.78900
C2042       C  0.91253497  0.41259243  0.45514293     1.01700
Cr2043     Cr  0.85917102  0.42497947  0.47125312     1.93700
Cr2044     Cr  0.83941840  0.47224234  0.43417289     1.93200
Cr2045     Cr  0.89675969  0.47045081  0.45456952     1.39100
O2046       O  0.86496508  0.45596372  0.45429479    -1.24000
O2047       O  0.88673464  0.26343681  0.33927103    -0.86200
O2048       O  0.93681629  0.27466508  0.32217611    -0.83300
C2049       C  0.95515716  0.28325517  0.30669271     0.97300
O2050       O  0.95406727  0.30794016  0.29855634    -0.83300
O2051       O  0.91690324  0.30512422  0.25490055    -0.85900
C2052       C  0.89375676  0.30083618  0.24430871     1.01800
O2053       O  0.87278543  0.30330702  0.25889689    -0.78700
O2054       O  0.86546521  0.26678775  0.29994002    -0.78900
C2055       C  0.87166763  0.25379131  0.32121370     1.01700
O2056       O  0.88081046  0.31379100  0.36282565    -0.86200
O2057       O  0.93078557  0.32911609  0.34936366    -0.83300
C2058       C  0.92145708  0.35227056  0.34320869     0.97300
O2059       O  0.92112517  0.35771219  0.31794683    -0.83300
O2060       O  0.89244950  0.35461188  0.27044266    -0.85900
C2061       C  0.86866547  0.36087883  0.27734543     1.01700
O2062       O  0.85678791  0.34640972  0.29502799    -0.78700
O2063       O  0.84665614  0.30749671  0.33539333    -0.78900
C2064       C  0.85606719  0.31084884  0.35907471     1.01700
Cr2065     Cr  0.90851813  0.29653564  0.34062407     1.93700
Cr2066     Cr  0.92008505  0.32977109  0.28779413     1.93200
Cr2067     Cr  0.86324787  0.30653537  0.29814285     1.39100
O2068       O  0.89716357  0.31034818  0.30861363    -1.24000
O2069       O  0.11738959  0.22949864  0.31643060    -0.86200
O2070       O  0.06537972  0.21161321  0.31016553    -0.83300
C2071       C  0.04563366  0.20406427  0.29567480     0.97300
O2072       O  0.04723536  0.18103537  0.28317335    -0.83300
O2073       O  0.07116874  0.18992790  0.23294007    -0.85900
C2074       C  0.08889271  0.20226361  0.21882768     1.01800
O2075       O  0.11243340  0.20541364  0.22783262    -0.78700
O2076       O  0.11578735  0.23727379  0.27271377    -0.78900
C2077       C  0.12078165  0.24521781  0.29642595     1.01700
O2078       O  0.13586011  0.17631904  0.32615144    -0.86200
O2079       O  0.08357862  0.15722523  0.32600089    -0.83300
C2080       C  0.09397121  0.13625993  0.31579436     0.97300
O2081       O  0.09214373  0.13396198  0.29019673    -0.83300
O2082       O  0.10927473  0.14621275  0.23912106    -0.85900
C2083       C  0.13486994  0.14899486  0.23879704     1.01700
O2084       O  0.14625712  0.16719408  0.25272263    -0.78700
O2085       O  0.15566127  0.20117432  0.29522342    -0.78900
C2086       C  0.15713325  0.18675799  0.31640616     1.01700
Cr2087     Cr  0.10018857  0.19289738  0.31693314     1.93700
Cr2088     Cr  0.08090436  0.16400503  0.26358499     1.93200
Cr2089     Cr  0.13035960  0.20169312  0.26349884     1.39100
O2090       O  0.10365026  0.18620348  0.28094858    -1.24000
O2091       O  0.17010078  0.05795359  0.49447702    -0.86200
O2092       O  0.20292956  0.06493292  0.44983968    -0.83300
C2093       C  0.21454085  0.04263303  0.45546111     0.97300
O2094       O  0.20449428  0.02141595  0.44494978    -0.83300
O2095       O  0.16376886  0.98077055  0.43523116    -0.85900
C2096       C  0.15337222  0.97483830  0.45840721     1.01800
O2097       O  0.15017568  0.99371499  0.47440732    -0.78700
O2098       O  0.13082258  0.03721600  0.49699559    -0.78900
C2099       C  0.15042109  0.04904553  0.50822319     1.01700
O2100       O  0.12596419  0.08235686  0.46712955    -0.86200
O2101       O  0.15370994  0.08539716  0.42034541    -0.83300
C2102       C  0.15934466  0.07521299  0.39757146     0.97300
O2103       O  0.17638177  0.05532495  0.39709066    -0.83300
O2104       O  0.14176159  0.01501701  0.39374571    -0.85900
C2105       C  0.12156070  0.00125770  0.40063191     1.01700
O2106       O  0.11447822  0.00036801  0.42568337    -0.78700
O2107       O  0.09903914  0.04944439  0.45308426    -0.78900
C2108       C  0.10259520  0.07312681  0.46244840     1.01700
Cr2109     Cr  0.16292773  0.07030599  0.45659683     1.93700
Cr2110     Cr  0.17162051  0.01985814  0.41989460     1.93200
Cr2111     Cr  0.12546640  0.02098857  0.46088755     1.39100
O2112       O  0.15249815  0.03760098  0.44504891    -1.24000
C2113       C  0.09860339  0.10394069  0.35629551    -0.02700
C2114       C  0.11042315  0.11656381  0.33351260     0.07000
C2115       C  0.13868232  0.11192830  0.32954588    -0.02800
C2116       C  0.15500791  0.09857218  0.34971632    -0.02800
C2117       C  0.14320715  0.08645625  0.37297897     0.07100
C2118       C  0.11442831  0.08802230  0.37449908    -0.03000
Br2119     Br  0.09520132  0.06478229  0.39843526    -0.01600
Br2120     Br  0.05993891  0.10687060  0.36158042    -0.01600
Br2121     Br  0.19361803  0.09808022  0.34600122    -0.01600
Br2122     Br  0.15569413  0.12293363  0.29636469    -0.01600
C2123       C  0.02630638  0.25250235  0.29614310    -0.02700
C2124       C  0.02138720  0.22395248  0.29412211     0.07000
C2125       C  0.99380799  0.21636452  0.29108623    -0.02800
C2126       C  0.97287275  0.23651869  0.29140631    -0.02800
C2127       C  0.97813020  0.26379902  0.29949113     0.07100
C2128       C  0.00541678  0.27150490  0.30142728    -0.03000
Br2129     Br  0.01463752  0.30820373  0.31156282    -0.01600
Br2130     Br  0.06049587  0.26726599  0.28569362    -0.01600
Br2131     Br  0.93822055  0.22833260  0.27540025    -0.01600
Br2132     Br  0.98409621  0.17878704  0.28688194    -0.01600
C2133       C  0.89480783  0.39575225  0.35482695    -0.02700
C2134       C  0.90568249  0.37044760  0.36354895     0.07000
C2135       C  0.89731336  0.36125892  0.38997493    -0.02800
C2136       C  0.87605189  0.37441376  0.40474392    -0.02800
C2137       C  0.86483179  0.39960616  0.39580157     0.07100
C2138       C  0.87436585  0.40950408  0.36997240    -0.03000
Br2139     Br  0.85824180  0.44099220  0.35269445    -0.01600
Br2140     Br  0.91020380  0.41420982  0.32342470    -0.01600
Br2141     Br  0.86072395  0.35550306  0.43587053    -0.01600
Br2142     Br  0.91572210  0.33132500  0.40765373    -0.01600
C2143       C  0.17916787  0.29264480  0.29272986    -0.02700
C2144       C  0.16932212  0.31537214  0.30722178     0.07000
C2145       C  0.14373345  0.31380055  0.32039617    -0.02800
C2146       C  0.12868288  0.28975605  0.31878381    -0.02800
C2147       C  0.13650606  0.26975861  0.30004691     0.07100
C2148       C  0.16166804  0.27144775  0.28667326    -0.03000
Br2149     Br  0.17330387  0.24489716  0.26003562    -0.01600
Br2150     Br  0.21677116  0.28866689  0.28178209    -0.01600
Br2151     Br  0.09757713  0.28465772  0.34218695    -0.01600
Br2152     Br  0.12729110  0.34408416  0.33913960    -0.01600
C2153       C  0.93622582  0.37224151  0.47324840    -0.02700
C2154       C  0.93313236  0.39202377  0.45258430     0.07000
C2155       C  0.94880085  0.39117175  0.42880878    -0.02800
C2156       C  0.96818004  0.37089607  0.42611542    -0.02800
C2157       C  0.97473263  0.35457427  0.44863260     0.07100
C2158       C  0.95766713  0.35383229  0.47150466    -0.03000
Br2159     Br  0.96519531  0.32904127  0.50101136    -0.01600
Br2160     Br  0.91306295  0.37203690  0.50500943    -0.01600
Br2161     Br  0.98669670  0.36584301  0.39215548    -0.01600
Br2162     Br  0.94477467  0.41837959  0.40070397    -0.01600
C2163       C  0.15820118  0.33798028  0.40306868    -0.02700
C2164       C  0.13787723  0.35128895  0.41804182     0.07000
C2165       C  0.13870336  0.38015218  0.41722575    -0.02800
C2166       C  0.15556405  0.39508662  0.39923272    -0.02800
C2167       C  0.17485732  0.38211301  0.38309257     0.07100
C2168       C  0.17721587  0.35322304  0.38677256    -0.03000
Br2169     Br  0.20553182  0.33347995  0.36939900    -0.01600
Br2170     Br  0.15903274  0.29887363  0.40400097    -0.01600
Br2171     Br  0.15287167  0.43408938  0.39725783    -0.01600
Br2172     Br  0.11993048  0.40033637  0.44369226    -0.01600
C2173       C  0.79700155  0.32135488  0.40587600    -0.02700
C2174       C  0.79313819  0.29428676  0.41416507     0.07000
C2175       C  0.81459454  0.27592378  0.41205536    -0.02800
C2176       C  0.83821128  0.28378194  0.39820358    -0.02800
C2177       C  0.83808066  0.30808891  0.38277401     0.07100
C2178       C  0.81787810  0.32729019  0.38764855    -0.03000
Br2179     Br  0.81732476  0.36069637  0.36824773    -0.01600
Br2180     Br  0.77260352  0.34967019  0.41718655    -0.01600
Br2181     Br  0.86952533  0.26073351  0.39959029    -0.01600
Br2182     Br  0.81081904  0.23992277  0.42664005    -0.01600
C2183       C  0.60986142  0.32688117  0.38740174    -0.02700
C2184       C  0.63588950  0.33664013  0.39509941     0.07000
C2185       C  0.64359704  0.36228447  0.38443148    -0.02800
C2186       C  0.62832300  0.37557793  0.36390069    -0.02800
C2187       C  0.60095352  0.36798243  0.35860034     0.07100
C2188       C  0.59222516  0.34291845  0.37046395    -0.03000
Br2189     Br  0.55638918  0.32960862  0.36255214    -0.01600
Br2190     Br  0.59763459  0.29203696  0.40035357    -0.01600
Br2191     Br  0.64706020  0.40302546  0.34263608    -0.01600
Br2192     Br  0.67359558  0.38152198  0.40090080    -0.01600
C2193       C  0.05873826  0.44506844  0.36817328    -0.02700
C2194       C  0.07106066  0.46770425  0.37991709     0.07000
C2195       C  0.08304879  0.46526345  0.40562501    -0.02800
C2196       C  0.07427507  0.44487600  0.42308957    -0.02800
C2197       C  0.06206758  0.42136445  0.41218899     0.07100
C2198       C  0.05675585  0.42073395  0.38332761    -0.03000
Br2199     Br  0.04788129  0.38809886  0.36378922    -0.01600
Br2200     Br  0.04401612  0.44805411  0.33185374    -0.01600
Br2201     Br  0.07706238  0.45264834  0.46174061    -0.01600
Br2202     Br  0.11122990  0.48977464  0.41672342    -0.01600
C2203       C  0.93579658  0.50777053  0.40572990    -0.02700
C2204       C  0.91158099  0.50455430  0.39067920     0.07000
C2205       C  0.91019876  0.51675884  0.36445049    -0.02800
C2206       C  0.93346506  0.52990510  0.35288767    -0.02800
C2207       C  0.95855226  0.52972363  0.36694502     0.07100
C2208       C  0.95904493  0.51836710  0.39363715    -0.03000
Br2209     Br  0.99160009  0.51493892  0.41524637    -0.01600
Br2210     Br  0.93853910  0.49889468  0.44420777    -0.01600
Br2211     Br  0.93146816  0.54635945  0.31731429    -0.01600
Br2212     Br  0.87689443  0.51493333  0.34432561    -0.01600
C2213       C  0.14473888  0.64172291  0.38273835    -0.02700
C2214       C  0.13300032  0.66569161  0.39397928     0.07000
C2215       C  0.10517233  0.67037263  0.38815013    -0.02800
C2216       C  0.08997715  0.65252766  0.37094719    -0.02800
C2217       C  0.10152008  0.62849724  0.36039126     0.07100
C2218       C  0.12938720  0.62391183  0.36603749    -0.03000
Br2219     Br  0.14723946  0.59204522  0.35132648    -0.01600
Br2220     Br  0.18172576  0.63078286  0.39079582    -0.01600
Br2221     Br  0.05297451  0.66097335  0.36242400    -0.01600
Br2222     Br  0.08655948  0.69983633  0.40582013    -0.01600
C2223       C  0.02972790  0.34980764  0.60573694    -0.02700
C2224       C  0.01210707  0.37242503  0.60444571     0.07000
C2225       C  0.00166414  0.37954694  0.57910009    -0.02800
C2226       C  0.01496466  0.37198049  0.55519770    -0.02800
C2227       C  0.03485393  0.35077782  0.55545204     0.07100
C2228       C  0.04037455  0.33838012  0.58111616    -0.03000
Br2229     Br  0.06127567  0.30558581  0.58259969    -0.01600
Br2230     Br  0.03723018  0.33336585  0.64066877    -0.01600
Br2231     Br  0.00722137  0.39529435  0.52420296    -0.01600
Br2232     Br  0.96707820  0.39751642  0.57748843    -0.01600
C2233       C  0.95158267  0.46764103  0.55842549    -0.02700
C2234       C  0.93771231  0.46994894  0.58326850     0.07000
C2235       C  0.90916601  0.47233336  0.58333955    -0.02800
C2236       C  0.89463247  0.46654880  0.55944573    -0.02800
C2237       C  0.90870799  0.45966718  0.53565711     0.07100
C2238       C  0.93719585  0.46159198  0.53479644    -0.03000
Br2239     Br  0.95725935  0.45554470  0.50169274    -0.01600
Br2240     Br  0.99018496  0.47455507  0.55647176    -0.01600
Br2241     Br  0.85566607  0.46893634  0.55872772    -0.01600
Br2242     Br  0.88976286  0.48553980  0.61467209    -0.01600
C2243       C  0.75385877  0.31939945  0.52753084    -0.02700
C2244       C  0.76903906  0.29685369  0.53741268     0.07000
C2245       C  0.76161947  0.27123781  0.52642704    -0.02800
C2246       C  0.74024601  0.26841059  0.50659661    -0.02800
C2247       C  0.72609050  0.29131891  0.49565023     0.07100
C2248       C  0.73307677  0.31685014  0.50727442    -0.03000
Br2249     Br  0.71285004  0.34899361  0.49724598    -0.01600
Br2250     Br  0.76192512  0.35489347  0.54103690    -0.01600
Br2251     Br  0.72980832  0.23233903  0.49591362    -0.01600
Br2252     Br  0.78005652  0.23936895  0.53940985    -0.01600
C2253       C  0.90874376  0.33762928  0.61713121    -0.02700
C2254       C  0.88333546  0.34622923  0.60648882     0.07000
C2255       C  0.87601844  0.37354045  0.61205926    -0.02800
C2256       C  0.89017978  0.38928760  0.63168599    -0.02800
C2257       C  0.91506277  0.38051870  0.64334217     0.07100
C2258       C  0.92418565  0.35432334  0.63541608    -0.03000
Br2259     Br  0.95768368  0.34044504  0.64960078    -0.01600
Br2260     Br  0.92473056  0.30468416  0.60343672    -0.01600
Br2261     Br  0.87301501  0.42205083  0.64458657    -0.01600
Br2262     Br  0.84724588  0.39110877  0.59200406    -0.01600
C2263       C  0.85577858  0.54826335  0.50331583    -0.02700
C2264       C  0.86304939  0.54407311  0.47583243     0.07000
C2265       C  0.88395699  0.56011572  0.46483571    -0.02800
C2266       C  0.90322917  0.57121808  0.48238233    -0.02800
C2267       C  0.89693549  0.57551231  0.51007291     0.07100
C2268       C  0.87140417  0.56622961  0.51962887    -0.03000
Br2269     Br  0.85699501  0.57855308  0.55362767    -0.01600
Br2270     Br  0.82544062  0.52894882  0.51860865    -0.01600
Br2271     Br  0.93954563  0.57429673  0.46900626    -0.01600
Br2272     Br  0.88917037  0.56193859  0.42576129    -0.01600
C2273       C  0.00915904  0.62923714  0.46329726    -0.02700
C2274       C  0.98135556  0.63494960  0.46725937     0.07000
C2275       C  0.96390713  0.63390579  0.44447380    -0.02800
C2276       C  0.97329755  0.62356724  0.41928625    -0.02800
C2277       C  0.00075452  0.61683147  0.41579346     0.07100
C2278       C  0.01894614  0.62224080  0.43722716    -0.03000
Br2279     Br  0.05730878  0.61873233  0.43139811    -0.01600
Br2280     Br  0.03396729  0.62743401  0.49354095    -0.01600
Br2281     Br  0.94831358  0.61658033  0.39009732    -0.01600
Br2282     Br  0.92624755  0.64296264  0.44894783    -0.01600
C2283       C  0.95724311  0.57117014  0.65433881    -0.02700
C2284       C  0.97600307  0.57692830  0.63331108     0.07000
C2285       C  0.00234338  0.56709393  0.63688178    -0.02800
C2286       C  0.00658168  0.54419484  0.65311701    -0.02800
C2287       C  0.98436389  0.53211683  0.66618547     0.07100
C2288       C  0.96086029  0.54764424  0.67019167    -0.03000
Br2289     Br  0.93282534  0.53585888  0.69484802    -0.01600
Br2290     Br  0.92985332  0.59677878  0.66462641    -0.01600
Br2291     Br  0.04142285  0.52683153  0.65424594    -0.01600
Br2292     Br  0.03244359  0.58924874  0.62754336    -0.01600
C2293       C  0.83384913  0.61899727  0.61628707    -0.02700
C2294       C  0.84041828  0.59674596  0.63384144     0.07000
C2295       C  0.86675983  0.58670269  0.63152538    -0.02800
C2296       C  0.88605521  0.60007291  0.61453825    -0.02800
C2297       C  0.88184074  0.62708134  0.60432385     0.07100
C2298       C  0.85447052  0.63530284  0.60380761    -0.03000
Br2299     Br  0.84493315  0.66817540  0.58463101    -0.01600
Br2300     Br  0.79773220  0.62300781  0.60295693    -0.01600
Br2301     Br  0.91086658  0.57602355  0.59744465    -0.01600
Br2302     Br  0.87395435  0.55096348  0.64626676    -0.01600
C2303       C  0.93697723  0.50805464  0.76492272    -0.02700
C2304       C  0.96054240  0.52107567  0.77531271     0.07000
C2305       C  0.98583274  0.51028467  0.76637422    -0.02800
C2306       C  0.98726504  0.48681934  0.74923074    -0.02800
C2307       C  0.96370829  0.47246289  0.74066366     0.07100
C2308       C  0.93848867  0.48397722  0.74870029    -0.03000
Br2309     Br  0.90505697  0.46699260  0.73768111    -0.01600
Br2310     Br  0.90194571  0.52431948  0.77070834    -0.01600
Br2311     Br  0.02229301  0.47592514  0.73617925    -0.01600
Br2312     Br  0.01954514  0.52771416  0.77637539    -0.01600
C2313       C  0.78810360  0.61913751  0.83704828    -0.02700
C2314       C  0.78291342  0.64702032  0.83926754     0.07000
C2315       C  0.76940840  0.66057358  0.81795524    -0.02800
C2316       C  0.76376895  0.64679730  0.79367272    -0.02800
C2317       C  0.77596019  0.62122701  0.78905360     0.07100
C2318       C  0.78688862  0.60675018  0.81125838    -0.03000
Br2319     Br  0.79971815  0.57024985  0.80647582    -0.01600
Br2320     Br  0.79488196  0.59807171  0.86925543    -0.01600
Br2321     Br  0.74153170  0.66461716  0.76644609    -0.01600
Br2322     Br  0.76013839  0.69848683  0.82098660    -0.01600
C2323       C  0.90484047  0.65989022  0.89914960    -0.02700
C2324       C  0.87868116  0.65105135  0.90773689     0.07000
C2325       C  0.87066829  0.62501339  0.89895206    -0.02800
C2326       C  0.88362706  0.61234212  0.87692332    -0.02800
C2327       C  0.91052691  0.61895599  0.86980072     0.07100
C2328       C  0.92139834  0.64287937  0.88199626    -0.03000
Br2329     Br  0.95851970  0.65243303  0.87547461    -0.01600
Br2330     Br  0.91879457  0.69398825  0.91191747    -0.01600
Br2331     Br  0.86262776  0.58907838  0.85348624    -0.01600
Br2332     Br  0.84339629  0.60538417  0.91933002    -0.01600
C2333       C  0.67724824  0.59468891  0.76621537    -0.02700
C2334       C  0.65361731  0.60527134  0.75412082     0.07000
C2335       C  0.64697934  0.59599673  0.72760685    -0.02800
C2336       C  0.66773629  0.58531817  0.71094073    -0.02800
C2337       C  0.69362514  0.58106039  0.72200348     0.07100
C2338       C  0.69659321  0.58139779  0.75037994    -0.03000
Br2339     Br  0.72778721  0.56510735  0.76731173    -0.01600
Br2340     Br  0.68403551  0.59860429  0.80408747    -0.01600
Br2341     Br  0.66124137  0.57597241  0.67350124    -0.01600
Br2342     Br  0.61023594  0.59693054  0.71446885    -0.01600
C2343       C  0.68474694  0.71551532  0.87356386    -0.02700
C2344       C  0.68222139  0.68943535  0.86191017     0.07000
C2345       C  0.69652599  0.66787936  0.87376874    -0.02800
C2346       C  0.71456731  0.67277049  0.89515867    -0.02800
C2347       C  0.72236595  0.69958507  0.90069365     0.07100
C2348       C  0.70648579  0.72106579  0.89101733    -0.03000
Br2349     Br  0.71603149  0.75797553  0.89966805    -0.01600
Br2350     Br  0.65794002  0.74296384  0.86824960    -0.01600
Br2351     Br  0.73118080  0.64283531  0.91434036    -0.01600
Br2352     Br  0.69361636  0.63218466  0.85977572    -0.01600
C2353       C  0.62231770  0.59649259  0.84528445    -0.02700
C2354       C  0.61148368  0.62171879  0.85455398     0.07000
C2355       C  0.62005378  0.63005112  0.88118195    -0.02800
C2356       C  0.63986425  0.61517650  0.89659208    -0.02800
C2357       C  0.65012982  0.58961739  0.88763785     0.07100
C2358       C  0.64113819  0.58097142  0.86127467    -0.03000
Br2359     Br  0.65618380  0.54854765  0.84479767    -0.01600
Br2360     Br  0.61144661  0.58186572  0.81021962    -0.01600
Br2361     Br  0.65527212  0.63244751  0.92847255    -0.01600
Br2362     Br  0.60465493  0.66193274  0.89800141    -0.01600
C2363       C  0.77618056  0.84085936  0.88736904    -0.02700
C2364       C  0.77884358  0.84335718  0.85868352     0.07000
C2365       C  0.79659801  0.82645183  0.84456419    -0.02800
C2366       C  0.80836700  0.80456360  0.85796849    -0.02800
C2367       C  0.80321327  0.79954942  0.88605320     0.07100
C2368       C  0.78842418  0.81873495  0.90107518    -0.03000
Br2369     Br  0.78322019  0.81347159  0.93962863    -0.01600
Br2370     Br  0.75469049  0.86634838  0.90765062    -0.01600
Br2371     Br  0.82850035  0.78000907  0.83559434    -0.01600
Br2372     Br  0.80385247  0.83239795  0.80595168    -0.01600
C2373       C  0.69231749  0.79244363  0.80359356    -0.02700
C2374       C  0.67593844  0.81552500  0.80777402     0.07000
C2375       C  0.64760081  0.81292779  0.80936730    -0.02800
C2376       C  0.63568471  0.78777995  0.80386797    -0.02800
C2377       C  0.65201818  0.76538278  0.79768004     0.07100
C2378       C  0.68030450  0.76760670  0.79764606    -0.03000
Br2379     Br  0.70291009  0.73663221  0.78979690    -0.01600
Br2380     Br  0.73128648  0.79393218  0.80722966    -0.01600
Br2381     Br  0.59697681  0.78448611  0.80264548    -0.01600
Br2382     Br  0.62471566  0.84336550  0.81839923    -0.01600
C2383       C  0.65096815  0.90013651  0.89597575    -0.02700
C2384       C  0.67179418  0.88638214  0.88214534     0.07000
C2385       C  0.67353027  0.85767052  0.88694928    -0.02800
C2386       C  0.65372252  0.84339455  0.90303711    -0.02800
C2387       C  0.63228371  0.85723823  0.91579946     0.07100
C2388       C  0.63220088  0.88600602  0.91296885    -0.03000
Br2389     Br  0.60707999  0.90695484  0.93366559    -0.01600
Br2390     Br  0.64839521  0.93902898  0.89195078    -0.01600
Br2391     Br  0.65478911  0.80451005  0.90654605    -0.01600
Br2392     Br  0.70216430  0.83678079  0.87112752    -0.01600
C2393       C  0.49086441  0.73989069  0.93630954    -0.02700
C2394       C  0.48591243  0.72227997  0.95874320     0.07000
C2395       C  0.50407308  0.72471608  0.98129847    -0.02800
C2396       C  0.52611019  0.74379853  0.98125422    -0.02800
C2397       C  0.53165077  0.76082161  0.95821413     0.07100
C2398       C  0.51359762  0.75788638  0.93559178    -0.03000
Br2399     Br  0.51866275  0.77870172  0.90265359    -0.01600
Br2400     Br  0.46483548  0.74172280  0.90702607    -0.01600
Br2401     Br  0.54890058  0.74553774  0.01331915    -0.01600
Br2402     Br  0.49965324  0.70151580  0.01287276    -0.01600
C2403       C  0.54864695  0.62030559  0.92036170    -0.02700
C2404       C  0.54521130  0.63721624  0.94282774     0.07000
C2405       C  0.56507274  0.63723334  0.96305459    -0.02800
C2406       C  0.58311368  0.61532217  0.96481578    -0.02800
C2407       C  0.58064366  0.59361178  0.94598891     0.07100
C2408       C  0.56363213  0.59663230  0.92335280    -0.03000
Br2409     Br  0.55951922  0.56853380  0.89726447    -0.01600
Br2410     Br  0.53244770  0.62998836  0.88612643    -0.01600
Br2411     Br  0.61036716  0.61517918  0.99306018    -0.01600
Br2412     Br  0.57022109  0.66987876  0.98373308    -0.01600
C2413       C  0.39214365  0.61304094  0.88419867    -0.02700
C2414       C  0.38600753  0.62579614  0.90962287     0.07000
C2415       C  0.36066436  0.61822462  0.92134516    -0.02800
C2416       C  0.34192828  0.60077009  0.90700549    -0.02800
C2417       C  0.34899628  0.58804110  0.88176311     0.07100
C2418       C  0.37596383  0.59199717  0.87315139    -0.03000
Br2419     Br  0.39260872  0.56708249  0.84780413    -0.01600
Br2420     Br  0.42018664  0.62675349  0.86065620    -0.01600
Br2421     Br  0.30762869  0.59234447  0.92377895    -0.01600
Br2422     Br  0.35099578  0.63181565  0.95676945    -0.01600
C2423       C  0.71113551  0.66968520  0.59800669    -0.02700
C2424       C  0.72229343  0.69573953  0.60179557     0.07000
C2425       C  0.74797100  0.69771192  0.61360352    -0.02800
C2426       C  0.75908154  0.67571008  0.62786285    -0.02800
C2427       C  0.74447316  0.65076220  0.63009592     0.07100
C2428       C  0.72162543  0.64716241  0.61282717    -0.03000
Br2429     Br  0.70357570  0.61257484  0.61024784    -0.01600
Br2430     Br  0.68295699  0.66514477  0.57123733    -0.01600
Br2431     Br  0.79421703  0.68134846  0.64475766    -0.01600
Br2432     Br  0.76824790  0.73079770  0.60962846    -0.01600
C2433       C  0.60130695  0.72751126  0.69688522    -0.02700
C2434       C  0.61200622  0.70158016  0.70292673     0.07000
C2435       C  0.62746407  0.68863652  0.68245963    -0.02800
C2436       C  0.63334346  0.70178826  0.65747769    -0.02800
C2437       C  0.62584562  0.72897106  0.65284301     0.07100
C2438       C  0.60804874  0.74086783  0.67197528    -0.03000
Br2439     Br  0.59204689  0.77516646  0.66340372    -0.01600
Br2440     Br  0.58051130  0.74651434  0.72399384    -0.01600
Br2441     Br  0.65286143  0.68235701  0.63032256    -0.01600
Br2442     Br  0.64330503  0.65358923  0.68915326    -0.01600
C2443       C  0.66522614  0.84777472  0.68987822    -0.02700
C2444       C  0.68438034  0.85020250  0.66896332     0.07000
C2445       C  0.70416593  0.87078095  0.67047692    -0.02800
C2446       C  0.70764923  0.88521167  0.69498407    -0.02800
C2447       C  0.69213993  0.87831745  0.71811860     0.07100
C2448       C  0.66871830  0.86190006  0.71443027    -0.03000
Br2449     Br  0.64120276  0.85736767  0.74228070    -0.01600
Br2450     Br  0.63408175  0.82518359  0.68455870    -0.01600
Br2451     Br  0.73137871  0.91606263  0.69610189    -0.01600
Br2452     Br  0.72668016  0.87889862  0.63937030    -0.01600
C2453       C  0.62897128  0.87874454  0.62408839    -0.02700
C2454       C  0.60329474  0.87280475  0.63594115     0.07000
C2455       C  0.59065581  0.84838923  0.62702090    -0.02800
C2456       C  0.60350702  0.83080750  0.60759954    -0.02800
C2457       C  0.62911165  0.83733946  0.59575677     0.07100
C2458       C  0.63982873  0.86327032  0.60231740    -0.03000
Br2459     Br  0.66891272  0.87924176  0.58104556    -0.01600
Br2460     Br  0.65220955  0.90570937  0.64033917    -0.01600
Br2461     Br  0.58405452  0.79932569  0.59471336    -0.01600
Br2462     Br  0.55603211  0.83806335  0.64172861    -0.01600
C2463       C  0.59683688  0.98166280  0.52975209    -0.02700
C2464       C  0.62273154  0.97047797  0.52593837     0.07000
C2465       C  0.63930043  0.96457956  0.54841508    -0.02800
C2466       C  0.62854132  0.96651143  0.57482956    -0.02800
C2467       C  0.60083318  0.97256114  0.57813997     0.07100
C2468       C  0.58621295  0.98326128  0.55600698    -0.03000
Br2469     Br  0.55236690  0.00175354  0.56205014    -0.01600
Br2470     Br  0.57498887  0.99352034  0.49923784    -0.01600
Br2471     Br  0.65261894  0.96413183  0.60537659    -0.01600
Br2472     Br  0.67669771  0.95476370  0.54284314    -0.01600
C2473       C  0.61346023  0.89017505  0.35014657    -0.02700
C2474       C  0.61976352  0.86229384  0.35036368     0.07000
C2475       C  0.64137195  0.85448676  0.36818650    -0.02800
C2476       C  0.65877634  0.87422482  0.38089187    -0.02800
C2477       C  0.65282436  0.90245523  0.38012839     0.07100
C2478       C  0.62882566  0.90939674  0.36548664    -0.03000
Br2479     Br  0.61362244  0.94440469  0.36866428    -0.01600
Br2480     Br  0.58126780  0.90187481  0.33101593    -0.01600
Br2481     Br  0.69151936  0.86215494  0.39856881    -0.01600
Br2482     Br  0.64490764  0.81736224  0.37982284    -0.01600
C2483       C  0.76528156  0.98242501  0.51626707    -0.02700
C2484       C  0.77610345  0.95892633  0.52904473     0.07000
C2485       C  0.76618811  0.93368474  0.51922079    -0.02800
C2486       C  0.74609514  0.93217964  0.49811090    -0.02800
C2487       C  0.73701835  0.95560704  0.48374932     0.07100
C2488       C  0.74836652  0.98069201  0.49246252    -0.03000
Br2489     Br  0.74326496  0.01263511  0.47045759    -0.01600
Br2490     Br  0.77020327  0.01694962  0.53368489    -0.01600
Br2491     Br  0.73187897  0.89739147  0.48778830    -0.01600
Br2492     Br  0.77918778  0.90081189  0.53611398    -0.01600
C2493       C  0.83876884  0.89175075  0.74469748    -0.02700
C2494       C  0.85745778  0.88107681  0.76374845     0.07000
C2495       C  0.85576388  0.89015576  0.79100697    -0.02800
C2496       C  0.83337754  0.90582840  0.79982871    -0.02800
C2497       C  0.81251581  0.91272276  0.78144892     0.07100
C2498       C  0.81740198  0.90856257  0.75347465    -0.03000
Br2499     Br  0.79255988  0.92377242  0.72761286    -0.01600
Br2500     Br  0.83958698  0.88065762  0.70716992    -0.01600
Br2501     Br  0.82972645  0.91566422  0.83756122    -0.01600
Br2502     Br  0.88312935  0.87955889  0.81656127    -0.01600
C2503       C  0.90510773  0.74326581  0.80644841    -0.02700
C2504       C  0.90920159  0.77182665  0.80735026     0.07000
C2505       C  0.90608888  0.78457640  0.83282728    -0.02800
C2506       C  0.89338210  0.77071013  0.85485746    -0.02800
C2507       C  0.88417707  0.74362715  0.85173899     0.07100
C2508       C  0.89198299  0.72942877  0.82815386    -0.03000
Br2509     Br  0.88316679  0.69132487  0.82520021    -0.01600
Br2510     Br  0.91640844  0.72327695  0.77474106    -0.01600
Br2511     Br  0.88457727  0.79034514  0.88753817    -0.01600
Br2512     Br  0.91781962  0.82142864  0.83694856    -0.01600
C2513       C  0.87286723  0.70087036  0.69652585    -0.02700
C2514       C  0.86709186  0.71881088  0.71803055     0.07000
C2515       C  0.84999960  0.71029992  0.73963926    -0.02800
C2516       C  0.83747991  0.68491790  0.73846978    -0.02800
C2517       C  0.83900868  0.66941288  0.71460192     0.07100
C2518       C  0.85914443  0.67593558  0.69515390    -0.03000
Br2519     Br  0.86943119  0.65095164  0.66732848    -0.01600
Br2520     Br  0.89670413  0.71142954  0.66689603    -0.01600
Br2521     Br  0.82218087  0.66961233  0.77111307    -0.01600
Br2522     Br  0.84156316  0.73333583  0.77037502    -0.01600
C2523       C  0.79447887  0.80728878  0.68742550    -0.02700
C2524       C  0.81899736  0.80958592  0.67281948     0.07000
C2525       C  0.81903697  0.80759401  0.64400664    -0.02800
C2526       C  0.79487640  0.80296209  0.62992967    -0.02800
C2527       C  0.77103419  0.79889496  0.64477178     0.07100
C2528       C  0.77083296  0.80053066  0.67345245    -0.03000
Br2529     Br  0.73866828  0.79177460  0.69416079    -0.01600
Br2530     Br  0.79269758  0.81110247  0.72676853    -0.01600
Br2531     Br  0.79477481  0.79942830  0.59058936    -0.01600
Br2532     Br  0.85201472  0.80989305  0.62345922    -0.01600
C2533       C  0.89321398  0.89795697  0.67033406    -0.02700
C2534       C  0.90168136  0.87280176  0.65922846     0.07000
C2535       C  0.89399078  0.86810382  0.63173987    -0.02800
C2536       C  0.87419240  0.88431031  0.61804102    -0.02800
C2537       C  0.86432587  0.90902721  0.62939357     0.07100
C2538       C  0.87452936  0.91544811  0.65606573    -0.03000
Br2539     Br  0.86102666  0.94680082  0.67529679    -0.01600
Br2540     Br  0.90829973  0.90941754  0.70473717    -0.01600
Br2541     Br  0.85899916  0.86999278  0.58479603    -0.01600
Br2542     Br  0.91371252  0.84111148  0.61141557    -0.01600
C2543       C  0.01391407  0.73418683  0.68259245    -0.02700
C2544       C  0.02215250  0.71924516  0.70632464     0.07000
C2545       C  0.01038205  0.72826464  0.73155416    -0.02800
C2546       C  0.99180113  0.75068377  0.73280620    -0.02800
C2547       C  0.98265568  0.76439455  0.70895981     0.07100
C2548       C  0.99513540  0.75636297  0.68412828    -0.03000
Br2549     Br  0.98927631  0.77848697  0.65224705    -0.01600
Br2550     Br  0.02771205  0.72487660  0.64690227    -0.01600
Br2551     Br  0.97984621  0.76333380  0.76804235    -0.01600
Br2552     Br  0.01827860  0.70982419  0.76553513    -0.01600
C2553       C  0.19503708  0.66099994  0.76106908    -0.02700
C2554       C  0.16995143  0.64741807  0.76042321     0.07000
C2555       C  0.16871543  0.62039924  0.77081018    -0.02800
C2556       C  0.19159450  0.60853556  0.78387459    -0.02800
C2557       C  0.21580831  0.62358267  0.78706828     0.07100
C2558       C  0.21697023  0.65026221  0.77553790    -0.03000
Br2559     Br  0.24721108  0.67504521  0.78036999    -0.01600
Br2560     Br  0.20085801  0.69421108  0.74064491    -0.01600
Br2561     Br  0.18855332  0.57285963  0.79999133    -0.01600
Br2562     Br  0.13585576  0.59937441  0.76797757    -0.01600
C2563       C  0.08618946  0.60636964  0.57991026    -0.02700
C2564       C  0.08408991  0.57807788  0.57436496     0.07000
C2565       C  0.05899294  0.56665555  0.56772885    -0.02800
C2566       C  0.03828993  0.58346062  0.55969185    -0.02800
C2567       C  0.03929107  0.61121675  0.56713925     0.07100
C2568       C  0.06297218  0.62258039  0.57789154    -0.03000
Br2569     Br  0.06342433  0.66017044  0.58885085    -0.01600
Br2570     Br  0.11962540  0.62363506  0.59052632    -0.01600
Br2571     Br  0.00994600  0.56682491  0.53797988    -0.01600
Br2572     Br  0.05106161  0.52839832  0.57328308    -0.01600
C2573       C  0.14698551  0.41063872  0.56190974    -0.02700
C2574       C  0.16329360  0.42943804  0.54755093     0.07000
C2575       C  0.16796169  0.42414312  0.51974639    -0.02800
C2576       C  0.15466482  0.40209444  0.50681726    -0.02800
C2577       C  0.13168963  0.38988043  0.51946416     0.07100
C2578       C  0.12999254  0.39225436  0.54795369    -0.03000
Br2579     Br  0.10594237  0.36868678  0.56792903    -0.01600
Br2580     Br  0.14662284  0.41178696  0.60069438    -0.01600
Br2581     Br  0.17384023  0.38425194  0.47790236    -0.01600
Br2582     Br  0.19047976  0.44824387  0.49875444    -0.01600
C2583       C  0.09574541  0.52419656  0.48571876    -0.02700
C2584       C  0.12258226  0.53401323  0.48676814     0.07000
C2585       C  0.13260547  0.55143847  0.46658968    -0.02800
C2586       C  0.11545746  0.56000936  0.44576205    -0.02800
C2587       C  0.08926778  0.54919609  0.44359797     0.07100
C2588       C  0.07902656  0.53194292  0.46412656    -0.03000
Br2589     Br  0.04247531  0.51828057  0.46288520    -0.01600
Br2590     Br  0.08130509  0.50038400  0.51375127    -0.01600
Br2591     Br  0.12671422  0.58884011  0.42234644    -0.01600
Br2592     Br  0.17020901  0.56217590  0.46679109    -0.01600
C2593       C  0.10964636  0.47195903  0.66244800    -0.02700
C2594       C  0.10888125  0.46785456  0.63381468     0.07000
C2595       C  0.09285827  0.44640478  0.62377018    -0.02800
C2596       C  0.08007416  0.42895338  0.64222559    -0.02800
C2597       C  0.07368221  0.43789163  0.66840016     0.07100
C2598       C  0.09059981  0.45822614  0.67937784    -0.03000
Br2599     Br  0.09027676  0.46368617  0.71806129    -0.01600
Br2600     Br  0.13559945  0.49637941  0.67839343    -0.01600
Br2601     Br  0.07437059  0.39195823  0.63319662    -0.01600
Br2602     Br  0.08571656  0.44147293  0.58539046    -0.01600
C2603       C  0.12859369  0.57353502  0.64725111    -0.02700
C2604       C  0.15572447  0.57778229  0.63762617     0.07000
C2605       C  0.16770488  0.60261745  0.64554625    -0.02800
C2606       C  0.15313920  0.62226049  0.66118023    -0.02800
C2607       C  0.12525238  0.61903818  0.66812230     0.07100
C2608       C  0.11429148  0.59317251  0.66321308    -0.03000
Br2609     Br  0.08039579  0.58399349  0.68033137    -0.01600
Br2610     Br  0.10809825  0.54316549  0.63579946    -0.01600
Br2611     Br  0.17353450  0.65061890  0.67809365    -0.01600
Br2612     Br  0.20469290  0.60972059  0.63526996    -0.01600
C2613       C  0.22890477  0.85502700  0.39704254    -0.02700
C2614       C  0.25539743  0.84936235  0.38793664     0.07000
C2615       C  0.26908382  0.82699885  0.39940536    -0.02800
C2616       C  0.25468525  0.80790938  0.41550452    -0.02800
C2617       C  0.22650709  0.81038841  0.41873926     0.07100
C2618       C  0.21471847  0.83557271  0.41271655    -0.03000
Br2619     Br  0.17813284  0.84158159  0.42395964    -0.01600
Br2620     Br  0.21109424  0.88808885  0.38622655    -0.01600
Br2621     Br  0.27257954  0.77739175  0.43205379    -0.01600
Br2622     Br  0.30713046  0.82260839  0.39276010    -0.01600
C2623       C  0.50922783  0.87910982  0.53766873    -0.02700
C2624       C  0.48345840  0.86660765  0.53866097     0.07000
C2625       C  0.47087153  0.86309165  0.56428690    -0.02800
C2626       C  0.48257680  0.87421965  0.58815045    -0.02800
C2627       C  0.50788555  0.88750238  0.58688393     0.07100
C2628       C  0.52146955  0.88909356  0.56164804    -0.03000
Br2629     Br  0.55633707  0.90667745  0.55961912    -0.01600
Br2630     Br  0.52777093  0.88366371  0.50342061    -0.01600
Br2631     Br  0.46235754  0.87425619  0.62178067    -0.01600
Br2632     Br  0.43658345  0.84474674  0.56636976    -0.01600
C2633       C  0.55136751  0.87629616  0.42410195    -0.02700
C2634       C  0.52751845  0.89134966  0.42592031     0.07000
C2635       C  0.52851275  0.91973660  0.42412715    -0.02800
C2636       C  0.55323644  0.93324472  0.42561173    -0.02800
C2637       C  0.57697997  0.91818632  0.43090537     0.07100
C2638       C  0.57620947  0.88940018  0.42854398    -0.03000
Br2639     Br  0.60766175  0.86681231  0.43386583    -0.01600
Br2640     Br  0.55007595  0.83863251  0.41383529    -0.01600
Br2641     Br  0.55360250  0.97216515  0.41981116    -0.01600
Br2642     Br  0.49585160  0.94014418  0.41885427    -0.01600
C2643       C  0.35841146  0.86405893  0.41998874    -0.02700
C2644       C  0.37942329  0.84687345  0.40967881     0.07000
C2645       C  0.38458012  0.84897554  0.38148874    -0.02800
C2646       C  0.37484117  0.87113490  0.36614230    -0.02800
C2647       C  0.35292042  0.88754750  0.37518791     0.07100
C2648       C  0.34511568  0.88382111  0.40287211    -0.03000
Br2649     Br  0.31822061  0.90735511  0.41838630    -0.01600
Br2650     Br  0.34457110  0.85825640  0.45633013    -0.01600
Br2651     Br  0.39717530  0.88227240  0.33593500    -0.01600
Br2652     Br  0.40260611  0.82018464  0.36212632    -0.01600
C2653       C  0.31479995  0.30611545  0.35298015    -0.02700
C2654       C  0.30940522  0.29757412  0.38033959     0.07000
C2655       C  0.29407832  0.31508002  0.39704748    -0.02800
C2656       C  0.28034996  0.33748243  0.38510998    -0.02800
C2657       C  0.28082107  0.34118214  0.35647858     0.07100
C2658       C  0.29905119  0.32615238  0.34075294    -0.03000
Br2659     Br  0.30157736  0.33143375  0.30162424    -0.01600
Br2660     Br  0.34290790  0.29022699  0.33053916    -0.01600
Br2661     Br  0.26031134  0.36231841  0.40753830    -0.01600
Br2662     Br  0.29231983  0.30914340  0.43578028    -0.01600
C2663       C  0.21325090  0.18841875  0.36982371    -0.02700
C2664       C  0.23576574  0.19429246  0.35295150     0.07000
C2665       C  0.23274601  0.19329514  0.32438327    -0.02800
C2666       C  0.20754477  0.18688109  0.31286736    -0.02800
C2667       C  0.18420561  0.18448880  0.32955637     0.07100
C2668       C  0.18737520  0.18433271  0.35825018    -0.03000
Br2669     Br  0.15663386  0.17937400  0.38208961    -0.01600
Br2670     Br  0.21754752  0.18684583  0.40897024    -0.01600
Br2671     Br  0.20598750  0.17934546  0.27410403    -0.01600
Br2672     Br  0.26334012  0.19964234  0.30054558    -0.01600
C2673       C  0.58123872  0.05768443  0.36542037    -0.02700
C2674       C  0.57124987  0.04592850  0.34157226     0.07000
C2675       C  0.58748590  0.02564642  0.32939222    -0.02800
C2676       C  0.61027177  0.01505529  0.34365124    -0.02800
C2677       C  0.61366634  0.02110724  0.37165595     0.07100
C2678       C  0.59858369  0.04295617  0.38236532    -0.03000
Br2679     Br  0.59657236  0.05070889  0.42071027    -0.01600
Br2680     Br  0.57139095  0.09381936  0.37484428    -0.01600
Br2681     Br  0.63652636  0.99315632  0.32500018    -0.01600
Br2682     Br  0.58073178  0.01496304  0.29243751    -0.01600
C2683       C  0.43352375  0.95315880  0.35096056    -0.02700
C2684       C  0.46076249  0.95663913  0.34365612     0.07000
C2685       C  0.47855141  0.93484069  0.34697854    -0.02800
C2686       C  0.46960474  0.91120198  0.36055143    -0.02800
C2687       C  0.44495296  0.91173161  0.37533759     0.07100
C2688       C  0.42667677  0.93292338  0.36987716    -0.03000
Br2689     Br  0.39343011  0.93630141  0.38922970    -0.01600
Br2690     Br  0.40614550  0.97710500  0.33678320    -0.01600
Br2691     Br  0.49202141  0.87948629  0.36001702    -0.01600
Br2692     Br  0.51523410  0.93834777  0.33438452    -0.01600
C2693       C  0.38637659  0.10527525  0.37596098    -0.02700
C2694       C  0.41333194  0.11220858  0.36847123     0.07000
C2695       C  0.42343493  0.13698022  0.37941099    -0.02800
C2696       C  0.40726075  0.15394570  0.39672066    -0.02800
C2697       C  0.38019475  0.14676462  0.40420505     0.07100
C2698       C  0.37110927  0.12085330  0.39502434    -0.03000
Br2699     Br  0.33878792  0.10433744  0.40994353    -0.01600
Br2700     Br  0.36813431  0.07662750  0.35639190    -0.01600
Br2701     Br  0.42390952  0.18594476  0.41230800    -0.01600
Br2702     Br  0.45951048  0.14859106  0.37073522    -0.01600
C2703       C  0.32001711  0.99593891  0.27045602    -0.02700
C2704       C  0.29776452  0.97869023  0.27591803     0.07000
C2705       C  0.27622007  0.97907445  0.25656084    -0.02800
C2706       C  0.27619786  0.99740386  0.23373861    -0.02800
C2707       C  0.29854652  0.01489415  0.22842719     0.07100
C2708       C  0.32083679  0.01281265  0.24684081    -0.03000
Br2709     Br  0.35397141  0.03204721  0.24016193    -0.01600
Br2710     Br  0.34997310  0.99709019  0.29576792    -0.01600
Br2711     Br  0.24617482  0.99650865  0.20852901    -0.01600
Br2712     Br  0.24791316  0.95229280  0.25902801    -0.01600
C2713       C  0.19684943  0.13977214  0.19910562    -0.02700
C2714       C  0.20400969  0.11234164  0.20449235     0.07000
C2715       C  0.18402049  0.09476250  0.21534171    -0.02800
C2716       C  0.15877837  0.10548464  0.22417541    -0.02800
C2717       C  0.15307481  0.13337259  0.22051694     0.07100
C2718       C  0.17085017  0.14915689  0.20475975    -0.03000
Br2719     Br  0.16006633  0.18499515  0.19263406    -0.01600
Br2720     Br  0.22254810  0.16667028  0.18681272    -0.01600
Br2721     Br  0.13236486  0.08241591  0.24142260    -0.01600
Br2722     Br  0.19210714  0.05692015  0.22027377    -0.01600
C2723       C  0.28487180  0.11172360  0.29856480    -0.02700
C2724       C  0.30675028  0.10617160  0.28137632     0.07000
C2725       C  0.33323941  0.10971443  0.29104189    -0.02800
C2726       C  0.33785303  0.12645939  0.31333103    -0.02800
C2727       C  0.31605593  0.13350387  0.32982653     0.07100
C2728       C  0.29003777  0.12303604  0.32426205    -0.03000
Br2729     Br  0.26194624  0.12419647  0.35122621    -0.01600
Br2730     Br  0.24842570  0.10492805  0.28640806    -0.01600
Br2731     Br  0.37305183  0.14210521  0.31906055    -0.01600
Br2732     Br  0.36274545  0.09063811  0.27538545    -0.01600
C2733       C  0.39200851  0.13245565  0.12127084    -0.02700
C2734       C  0.38531029  0.13898395  0.09407333     0.07000
C2735       C  0.36153251  0.12669239  0.08329785    -0.02800
C2736       C  0.34581085  0.10760776  0.09915993    -0.02800
C2737       C  0.35438562  0.09923911  0.12562841     0.07100
C2738       C  0.37937965  0.11072065  0.13509372    -0.03000
Br2739     Br  0.39875596  0.09606053  0.16644878    -0.01600
Br2740     Br  0.41793060  0.15492530  0.14061651    -0.01600
Br2741     Br  0.31374129  0.09171514  0.08373466    -0.01600
Br2742     Br  0.34956127  0.13733054  0.04754683    -0.01600
C2743       C  0.57256956  0.47753161  0.84149024    -0.02700
C2744       C  0.57450564  0.44925315  0.84386673     0.07000
C2745       C  0.59915852  0.43826688  0.85308998    -0.02800
C2746       C  0.61947150  0.45536744  0.86421181    -0.02800
C2747       C  0.61409410  0.48319898  0.86869509     0.07100
C2748       C  0.59185689  0.49426842  0.85436475    -0.03000
Br2749     Br  0.58808163  0.53228323  0.85078624    -0.01600
Br2750     Br  0.54216108  0.49333427  0.82266543    -0.01600
Br2751     Br  0.65460410  0.44086699  0.87138026    -0.01600
Br2752     Br  0.60424945  0.39966328  0.85126739    -0.01600
C2753       C  0.48211936  0.53826213  0.86640045    -0.02700
C2754       C  0.49058490  0.51658999  0.88285610     0.07000
C2755       C  0.49838556  0.52095183  0.91010628    -0.02800
C2756       C  0.49252804  0.54571849  0.92236609    -0.02800
C2757       C  0.48195138  0.56708379  0.90642972     0.07100
C2758       C  0.48019219  0.56418997  0.87784135    -0.03000
Br2759     Br  0.47783627  0.59492833  0.85397795    -0.01600
Br2760     Br  0.47280940  0.53225561  0.82862575    -0.01600
Br2761     Br  0.49959969  0.55016218  0.96094910    -0.01600
Br2762     Br  0.51611693  0.49295333  0.93116761    -0.01600
C2763       C  0.39524512  0.36707406  0.85202297    -0.02700
C2764       C  0.42293107  0.36383415  0.85820076     0.07000
C2765       C  0.42934430  0.34199893  0.87658897    -0.02800
C2766       C  0.40867577  0.32860635  0.89253999    -0.02800
C2767       C  0.38090415  0.33338433  0.88719862     0.07100
C2768       C  0.37562529  0.34971163  0.86380304    -0.03000
Br2769     Br  0.34592077  0.34077914  0.84075585    -0.01600
Br2770     Br  0.38325538  0.39306450  0.82484689    -0.01600
Br2771     Br  0.41859078  0.30277140  0.92037049    -0.01600
Br2772     Br  0.46551490  0.32769801  0.87786587    -0.01600
C2773       C  0.41450291  0.23619047  0.33294862    -0.02700
C2774       C  0.39736608  0.24883796  0.35215933     0.07000
C2775       C  0.40222203  0.27707004  0.35706430    -0.02800
C2776       C  0.41711237  0.29265469  0.33778603    -0.02800
C2777       C  0.42654584  0.28051736  0.31394484     0.07100
C2778       C  0.43017907  0.25228758  0.31487896    -0.03000
Br2779     Br  0.45683337  0.23725963  0.29083152    -0.01600
Br2780     Br  0.41833646  0.19755998  0.33286826    -0.01600
Br2781     Br  0.42732253  0.32966088  0.34418059    -0.01600
Br2782     Br  0.38784100  0.29554335  0.38845152    -0.01600
C2783       C  0.36281209  0.18430592  0.17848826    -0.02700
C2784       C  0.36290171  0.16334917  0.19830917     0.07000
C2785       C  0.38238848  0.16465445  0.21933080    -0.02800
C2786       C  0.39393424  0.18969967  0.22612162    -0.02800
C2787       C  0.39019922  0.21200438  0.20884640     0.07100
C2788       C  0.37803979  0.20794353  0.18312780    -0.03000
Br2789     Br  0.38344641  0.23345119  0.15373069    -0.01600
Br2790     Br  0.34313250  0.18080693  0.14456466    -0.01600
Br2791     Br  0.41518097  0.19309914  0.25851435    -0.01600
Br2792     Br  0.39697061  0.13256578  0.23577485    -0.01600
C2793       C  0.33534320  0.38363494  0.24685444    -0.02700
C2794       C  0.35242022  0.37175201  0.26676413     0.07000
C2795       C  0.35048042  0.38123216  0.29386543    -0.02800
C2796       C  0.32958329  0.39923848  0.30152942    -0.02800
C2797       C  0.31069505  0.40848691  0.28211744     0.07100
C2798       C  0.31634926  0.40363017  0.25446000    -0.03000
Br2799     Br  0.29658847  0.42390436  0.22760284    -0.01600
Br2800     Br  0.33421528  0.36952609  0.21028259    -0.01600
Br2801     Br  0.32426699  0.40843298  0.33930644    -0.01600
Br2802     Br  0.37470941  0.36777710  0.32109316    -0.01600
C2803       C  0.36019824  0.56553553  0.04144802    -0.02700
C2804       C  0.35779852  0.53981991  0.02930435     0.07000
C2805       C  0.36788338  0.53653426  0.00261201    -0.02800
C2806       C  0.38487047  0.55638929  0.99069062    -0.02800
C2807       C  0.38964698  0.58111422  0.00425762     0.07100
C2808       C  0.37471254  0.58664086  0.02824032    -0.03000
Br2809     Br  0.37477879  0.62243199  0.04373229    -0.01600
Br2810     Br  0.34618413  0.57045818  0.07762372    -0.01600
Br2811     Br  0.40175362  0.54962507  0.95584933    -0.01600
Br2812     Br  0.35878854  0.50441394  0.98277413    -0.01600
C2813       C  0.39259705  0.44049952  0.95959990    -0.02700
C2814       C  0.40575412  0.44174845  0.98494164     0.07000
C2815       C  0.43415990  0.44032193  0.98654005    -0.02800
C2816       C  0.44945722  0.43790047  0.96282459    -0.02800
C2817       C  0.43642835  0.43866494  0.93722547     0.07100
C2818       C  0.40792524  0.44064732  0.93561361    -0.03000
Br2819     Br  0.38952278  0.44657562  0.90117574    -0.01600
Br2820     Br  0.35381090  0.43859967  0.95742663    -0.01600
Br2821     Br  0.48818210  0.43269481  0.96628013    -0.01600
Br2822     Br  0.45273251  0.44074528  0.02118310    -0.01600
C2823       C  0.36646960  0.41016547  0.15603732    -0.02700
C2824       C  0.35729455  0.40206552  0.12954395     0.07000
C2825       C  0.36689988  0.37639281  0.12026145    -0.02800
C2826       C  0.38724747  0.36189688  0.13484124    -0.02800
C2827       C  0.39481911  0.36886682  0.16185977     0.07100
C2828       C  0.38489360  0.39390504  0.17179969    -0.03000
Br2829     Br  0.39734853  0.40673873  0.20672459    -0.01600
Br2830     Br  0.35149222  0.44198562  0.17294767    -0.01600
Br2831     Br  0.40715905  0.33349565  0.11649754    -0.01600
Br2832     Br  0.35097022  0.35854300  0.08891034    -0.01600
C2833       C  0.08412725  0.49102507  0.24970540    -0.02700
C2834       C  0.06134526  0.47476025  0.24203659     0.07000
C2835       C  0.03590304  0.48296999  0.25321935    -0.02800
C2836       C  0.03362815  0.50569944  0.27134258    -0.02800
C2837       C  0.05649094  0.52173701  0.27886340     0.07100
C2838       C  0.08144122  0.51463518  0.26640984    -0.03000
Br2839     Br  0.11204021  0.53907008  0.26952898    -0.01600
Br2840     Br  0.12027719  0.48125310  0.23878466    -0.01600
Br2841     Br  0.99825879  0.51457591  0.28539180    -0.01600
Br2842     Br  0.00315985  0.46310409  0.24469231    -0.01600
C2843       C  0.28526857  0.26716577  0.00743380    -0.02700
C2844       C  0.28489775  0.28941768  0.98890415     0.07000
C2845       C  0.26537767  0.31013760  0.99459615    -0.02800
C2846       C  0.24495695  0.30660884  0.01510790    -0.02800
C2847       C  0.24451987  0.28358405  0.03237930     0.07100
C2848       C  0.26659073  0.26536620  0.02967095    -0.03000
Br2849     Br  0.27400496  0.24015588  0.05862897    -0.01600
Br2850     Br  0.31335018  0.24020749  0.00441643    -0.01600
Br2851     Br  0.21903082  0.33501995  0.02204629    -0.01600
Br2852     Br  0.26716187  0.34493861  0.97670148    -0.01600
C2853       C  0.25448759  0.16072536  0.09996222    -0.02700
C2854       C  0.24572277  0.14227385  0.12026077     0.07000
C2855       C  0.21761256  0.13815430  0.12290550    -0.02800
C2856       C  0.19970897  0.15829681  0.11374554    -0.02800
C2857       C  0.20921708  0.17981368  0.09729130     0.07100
C2858       C  0.23519934  0.17708075  0.08628062    -0.03000
Br2859     Br  0.23918489  0.18530732  0.04829176    -0.01600
Br2860     Br  0.29178895  0.16297081  0.08999269    -0.01600
Br2861     Br  0.16254917  0.15634328  0.12425878    -0.01600
Br2862     Br  0.20330853  0.10471672  0.13723961    -0.01600
C2863       C  0.10296398  0.20916553  0.14483282    -0.02700
C2864       C  0.11264285  0.23607903  0.14604516     0.07000
C2865       C  0.10157311  0.25301944  0.16617483    -0.02800
C2866       C  0.08675150  0.24192898  0.18808301    -0.02800
C2867       C  0.08426896  0.21361090  0.19101369     0.07100
C2868       C  0.09015432  0.19743580  0.16799989    -0.03000
Br2869     Br  0.08388764  0.15890507  0.16967531    -0.01600
Br2870     Br  0.10560288  0.18948958  0.11133019    -0.01600
Br2871     Br  0.07283161  0.26517824  0.21595933    -0.01600
Br2872     Br  0.10798277  0.29132086  0.16423817    -0.01600
C2873       C  0.17837210  0.32481917  0.20673430    -0.02700
C2874       C  0.19881099  0.32450276  0.18716512     0.07000
C2875       C  0.21729977  0.34615948  0.18476667    -0.02800
C2876       C  0.21507222  0.36831981  0.20214581    -0.02800
C2877       C  0.19535304  0.36809675  0.22280812     0.07100
C2878       C  0.17529903  0.34747600  0.22329709    -0.03000
Br2879     Br  0.14335494  0.34924982  0.24605728    -0.01600
Br2880     Br  0.15614779  0.29329369  0.21242452    -0.01600
Br2881     Br  0.23840548  0.39931905  0.19709198    -0.01600
Br2882     Br  0.24746433  0.34432999  0.15976186    -0.01600
C2883       C  0.27801434  0.25767290  0.18358356    -0.02700
C2884       C  0.27644396  0.26340687  0.15532628     0.07000
C2885       C  0.29781315  0.27691222  0.14207707    -0.02800
C2886       C  0.32003847  0.28561176  0.15693784    -0.02800
C2887       C  0.32139198  0.28091169  0.18513499     0.07100
C2888       C  0.30077373  0.26621489  0.19849518    -0.03000
Br2889     Br  0.30390422  0.25725697  0.23682990    -0.01600
Br2890     Br  0.24806116  0.24094025  0.20259554    -0.01600
Br2891     Br  0.34796371  0.30540290  0.13841106    -0.01600
Br2892     Br  0.29577106  0.28649409  0.10391108    -0.01600
C2893       C  0.10043149  0.35319653  0.13359519    -0.02700
C2894       C  0.11332288  0.37423239  0.14859304     0.07000
C2895       C  0.14179015  0.37653251  0.14463193    -0.02800
C2896       C  0.15603814  0.36069575  0.12480183    -0.02800
C2897       C  0.14328697  0.33895880  0.11045636     0.07100
C2898       C  0.11481261  0.33660593  0.11438419    -0.03000
Br2899     Br  0.09436152  0.31264388  0.09107053    -0.01600
Br2900     Br  0.06322231  0.34492900  0.14076802    -0.01600
Br2901     Br  0.19231091  0.37204397  0.11519560    -0.01600
Br2902     Br  0.16212817  0.40065163  0.16793293    -0.01600
C2903       C  0.80862774  0.40267888  0.25415382    -0.02700
C2904       C  0.81446713  0.40527582  0.22643971     0.07000
C2905       C  0.84152070  0.40404338  0.21832247    -0.02800
C2906       C  0.86110343  0.39222844  0.23579323    -0.02800
C2907       C  0.85326450  0.38276777  0.26219930     0.07100
C2908       C  0.82799755  0.39186402  0.27208475    -0.03000
Br2909     Br  0.82012033  0.39192118  0.31002470    -0.01600
Br2910     Br  0.77431183  0.41511253  0.26716908    -0.01600
Br2911     Br  0.89765842  0.38923232  0.22262011    -0.01600
Br2912     Br  0.85144703  0.42329772  0.18582906    -0.01600
C2913       C  0.73929511  0.31979242  0.28107480    -0.02700
C2914       C  0.73292937  0.34766154  0.27958534     0.07000
C2915       C  0.72725866  0.36209332  0.30355834    -0.02800
C2916       C  0.72885931  0.34896179  0.32899105    -0.02800
C2917       C  0.73145010  0.32033649  0.33042545     0.07100
C2918       C  0.73753309  0.30594501  0.30618147    -0.03000
Br2919     Br  0.74466426  0.26739639  0.30670486    -0.01600
Br2920     Br  0.74881888  0.29990705  0.24840372    -0.01600
Br2921     Br  0.72913936  0.37132432  0.36105140    -0.01600
Br2922     Br  0.71650696  0.39975018  0.30187743    -0.01600
C2923       C  0.48223954  0.24804232  0.07298564    -0.02700
C2924       C  0.48316093  0.23066043  0.05017933     0.07000
C2925       C  0.50551570  0.23406418  0.03226902    -0.02800
C2926       C  0.52558719  0.25475524  0.03652438    -0.02800
C2927       C  0.52585880  0.27102585  0.06056603     0.07100
C2928       C  0.50378592  0.26647429  0.07915597    -0.03000
Br2929     Br  0.50263188  0.28385804  0.11451851    -0.01600
Br2930     Br  0.44955083  0.24828413  0.09439389    -0.01600
Br2931     Br  0.55163552  0.26119681  0.00799320    -0.01600
Br2932     Br  0.50972362  0.20928025  0.00231203    -0.01600
C2933       C  0.46657962  0.37756243  0.10524917    -0.02700
C2934       C  0.47596090  0.36300335  0.08251031     0.07000
C2935       C  0.45730782  0.35573456  0.06248990    -0.02800
C2936       C  0.43404577  0.37146041  0.05897575    -0.02800
C2937       C  0.42861768  0.39228976  0.07788400     0.07100
C2938       C  0.44365989  0.39396539  0.10216094    -0.03000
Br2939     Br  0.43387492  0.41963061  0.13002462    -0.01600
Br2940     Br  0.48332075  0.37324242  0.14051361    -0.01600
Br2941     Br  0.41202456  0.36626734  0.02700008    -0.01600
Br2942     Br  0.46141299  0.32098412  0.04544186    -0.01600
C2943       C  0.55064304  0.33572750  0.94237996    -0.02700
C2944       C  0.53491426  0.34170419  0.96566993     0.07000
C2945       C  0.50833761  0.35070094  0.96159512    -0.02800
C2946       C  0.49925844  0.35802751  0.93554396    -0.02800
C2947       C  0.51769161  0.35941505  0.91337768     0.07100
C2948       C  0.54290082  0.34619401  0.91640818    -0.03000
Br2949     Br  0.56792002  0.34489556  0.88648648    -0.01600
Br2950     Br  0.58173924  0.31266377  0.94598747    -0.01600
Br2951     Br  0.46236894  0.37064551  0.93187602    -0.01600
Br2952     Br  0.48475986  0.35554016  0.99216165    -0.01600
C2953       C  0.64718367  0.37869905  0.14967572    -0.02700
C2954       C  0.67002746  0.39229332  0.13817354     0.07000
C2955       C  0.67373816  0.38942722  0.10962523    -0.02800
C2956       C  0.65760586  0.37119445  0.09379308    -0.02800
C2957       C  0.63602097  0.35569487  0.10573994     0.07100
C2958       C  0.63154072  0.35972048  0.13426216    -0.03000
Br2959     Br  0.60318800  0.34027397  0.15336366    -0.01600
Br2960     Br  0.63276937  0.39022086  0.18452880    -0.01600
Br2961     Br  0.66587323  0.36882639  0.05527008    -0.01600
Br2962     Br  0.69694563  0.41519457  0.09092683    -0.01600
C2963       C  0.63490356  0.40016280  0.97838827    -0.02700
C2964       C  0.62416083  0.40750493  0.00425156     0.07000
C2965       C  0.63392989  0.43201798  0.01603287    -0.02800
C2966       C  0.65118141  0.44949136  0.00111253    -0.02800
C2967       C  0.65625333  0.44480091  0.97354880     0.07100
C2968       C  0.65051173  0.41896490  0.96316335    -0.03000
Br2969     Br  0.66732960  0.40846389  0.92969784    -0.01600
Br2970     Br  0.62783750  0.36527118  0.96236088    -0.01600
Br2971     Br  0.66952808  0.47953493  0.01783172    -0.01600
Br2972     Br  0.62416486  0.44279455  0.05211901    -0.01600
C2973       C  0.26728901  0.56412953  0.49825196    -0.02700
C2974       C  0.27928785  0.54088483  0.48573136     0.07000
C2975       C  0.27203617  0.51525136  0.49789285    -0.02800
C2976       C  0.25373368  0.51321190  0.52066297    -0.02800
C2977       C  0.24105430  0.53628327  0.53187233     0.07100
C2978       C  0.24887517  0.56179487  0.52074138    -0.03000
Br2979     Br  0.23503130  0.59435560  0.53767784    -0.01600
Br2980     Br  0.27497516  0.60014036  0.48496428    -0.01600
Br2981     Br  0.24619548  0.47846902  0.53717739    -0.01600
Br2982     Br  0.28648818  0.48179628  0.48396941    -0.01600
C2983       C  0.44907785  0.51821240  0.39799107    -0.02700
C2984       C  0.42554872  0.50260428  0.40161242     0.07000
C2985       C  0.42454180  0.47604381  0.39090035    -0.02800
C2986       C  0.44787086  0.46433231  0.37902775    -0.02800
C2987       C  0.47222077  0.47933871  0.37732133     0.07100
C2988       C  0.47244315  0.50652050  0.38666260    -0.03000
Br2989     Br  0.50540425  0.52734493  0.38660685    -0.01600
Br2990     Br  0.44910497  0.55582542  0.40873232    -0.01600
Br2991     Br  0.44754285  0.42655376  0.36885519    -0.01600
Br2992     Br  0.39153751  0.45533647  0.39366606    -0.01600
C2993       C  0.50170991  0.72781806  0.31728508    -0.02700
C2994       C  0.48743518  0.72438320  0.29234311     0.07000
C2995       C  0.49519364  0.74147926  0.27038730    -0.02800
C2996       C  0.51524631  0.76216531  0.27351150    -0.02800
C2997       C  0.53110624  0.76405755  0.29761997     0.07100
C2998       C  0.52379298  0.74657874  0.31956191    -0.03000
Br2999     Br  0.54249317  0.75039255  0.35393554    -0.01600
Br3000     Br  0.49080918  0.70689617  0.34871074    -0.01600
Br3001     Br  0.51917923  0.78889954  0.24501704    -0.01600
Br3002     Br  0.47906948  0.73571930  0.23523080    -0.01600
C3003       C  0.33974341  0.77655737  0.27198540    -0.02700
C3004       C  0.36780066  0.77334115  0.27635338     0.07000
C3005       C  0.38438994  0.79611835  0.28093578    -0.02800
C3006       C  0.37272575  0.82192469  0.28135876    -0.02800
C3007       C  0.34445101  0.82419021  0.28279344     0.07100
C3008       C  0.32803351  0.80199551  0.27572193    -0.03000
Br3009     Br  0.28973031  0.80692123  0.26928300    -0.01600
Br3010     Br  0.31642996  0.74612127  0.26381588    -0.01600
Br3011     Br  0.39518508  0.85327429  0.27557466    -0.01600
Br3012     Br  0.42256169  0.79226211  0.28817050    -0.01600
C3013       C  0.29787569  0.73479900  0.35593910    -0.02700
C3014       C  0.28153415  0.71354190  0.36620178     0.07000
C3015       C  0.29095148  0.68624185  0.36436430    -0.02800
C3016       C  0.31306115  0.68050439  0.34785084    -0.02800
C3017       C  0.32912059  0.70168838  0.33825398     0.07100
C3018       C  0.32320763  0.72864220  0.34527333    -0.03000
Br3019     Br  0.34980556  0.75701823  0.34254357    -0.01600
Br3020     Br  0.28494201  0.77138774  0.35067343    -0.01600
Br3021     Br  0.32000203  0.64387216  0.33656582    -0.01600
Br3022     Br  0.27389535  0.65558937  0.38235935    -0.01600
C3023       C  0.37819707  0.58350320  0.35680289    -0.02700
C3024       C  0.36477465  0.59576351  0.37925949     0.07000
C3025       C  0.36878901  0.62424236  0.38221403    -0.02800
C3026       C  0.38793062  0.63897520  0.36622988    -0.02800
C3027       C  0.40046400  0.62734588  0.34281812     0.07100
C3028       C  0.39550548  0.59900240  0.33883063    -0.03000
Br3029     Br  0.41532103  0.58006236  0.31090096    -0.01600
Br3030     Br  0.37287689  0.54539163  0.35013136    -0.01600
Br3031     Br  0.39837091  0.67436555  0.37963280    -0.01600
Br3032     Br  0.34602996  0.64441566  0.40717064    -0.01600
C3033       C  0.41745294  0.43924933  0.51080972    -0.02700
C3034       C  0.40493345  0.41341794  0.50980525     0.07000
C3035       C  0.38068750  0.41053552  0.49462929    -0.02800
C3036       C  0.36821326  0.43352941  0.48237369    -0.02800
C3037       C  0.37951985  0.45969878  0.48559371     0.07100
C3038       C  0.40450886  0.46218838  0.49988214    -0.03000
Br3039     Br  0.42247026  0.49691901  0.50496966    -0.01600
Br3040     Br  0.45392150  0.44351890  0.52519760    -0.01600
Br3041     Br  0.33489896  0.42924612  0.46251608    -0.01600
Br3042     Br  0.36414418  0.37535902  0.49070932    -0.01600
C3043       C  0.51708495  0.38147391  0.48203435    -0.02700
C3044       C  0.49600856  0.36238580  0.47831782     0.07000
C3045       C  0.48857112  0.35553105  0.45144171    -0.02800
C3046       C  0.50040496  0.36938121  0.42886179    -0.02800
C3047       C  0.51850468  0.39165898  0.43308898     0.07100
C3048       C  0.52658113  0.39746743  0.46032637    -0.03000
Br3049     Br  0.54831412  0.42904993  0.47019969    -0.01600
Br3050     Br  0.53313829  0.38667175  0.51748443    -0.01600
Br3051     Br  0.49086817  0.35742479  0.39259954    -0.01600
Br3052     Br  0.46139454  0.32801131  0.44552886    -0.01600
C3053       C  0.31654162  0.47869161  0.75142121    -0.02700
C3054       C  0.29540654  0.47445756  0.73178612     0.07000
C3055       C  0.27348490  0.49345310  0.73296282    -0.02800
C3056       C  0.27266719  0.51478693  0.75297417    -0.02800
C3057       C  0.29383682  0.51874135  0.77218683     0.07100
C3058       C  0.31555544  0.50022269  0.77100988    -0.03000
Br3059     Br  0.34421216  0.50444669  0.79738930    -0.01600
Br3060     Br  0.34818920  0.45585456  0.75203813    -0.01600
Br3061     Br  0.24192126  0.53864783  0.75430189    -0.01600
Br3062     Br  0.24424321  0.49164146  0.70673755    -0.01600
C3063       C  0.24913606  0.35294117  0.79405649    -0.02700
C3064       C  0.26462018  0.37596768  0.78673803     0.07000
C3065       C  0.27857349  0.39016104  0.80743727    -0.02800
C3066       C  0.28340696  0.37705829  0.83254216    -0.02800
C3067       C  0.27470832  0.34996998  0.83589864     0.07100
C3068       C  0.25566271  0.33889263  0.81783278    -0.03000
Br3069     Br  0.23940538  0.30393666  0.82496616    -0.01600
Br3070     Br  0.22025700  0.33953112  0.77104801    -0.01600
Br3071     Br  0.30321617  0.39535290  0.86105165    -0.01600
Br3072     Br  0.29049327  0.42705624  0.80194736    -0.01600
C3073       C  0.34010552  0.37394713  0.60907768    -0.02700
C3074       C  0.34674781  0.37741043  0.63717670     0.07000
C3075       C  0.36970950  0.36252282  0.64655108    -0.02800
C3076       C  0.38325614  0.34308007  0.62992786    -0.02800
C3077       C  0.37801478  0.34096439  0.60134869     0.07100
C3078       C  0.35516084  0.35584758  0.59173706    -0.03000
Br3079     Br  0.34280712  0.35023278  0.55494400    -0.01600
Br3080     Br  0.31088411  0.39461207  0.59333452    -0.01600
Br3081     Br  0.40858291  0.31892316  0.64790231    -0.01600
Br3082     Br  0.38589714  0.37117700  0.68144158    -0.01600
C3083       C  0.19328054  0.86400002  0.30260062    -0.02700
C3084       C  0.19996935  0.89169997  0.30424651     0.07000
C3085       C  0.18220324  0.91045173  0.29175777    -0.02800
C3086       C  0.16021658  0.90078164  0.27550432    -0.02800
C3087       C  0.15888075  0.87295585  0.26833590     0.07100
C3088       C  0.17688559  0.85484480  0.28141443    -0.03000
Br3089     Br  0.18459618  0.81892980  0.26782626    -0.01600
Br3090     Br  0.20997036  0.83790731  0.32667817    -0.01600
Br3091     Br  0.13359971  0.92547471  0.26148983    -0.01600
Br3092     Br  0.18765833  0.94862655  0.29722157    -0.01600
C3093       C  0.11512021  0.90829161  0.16355615    -0.02700
C3094       C  0.10556875  0.88249519  0.15481683     0.07000
C3095       C  0.11496493  0.87413387  0.12868587    -0.02800
C3096       C  0.13701288  0.88767594  0.11508909    -0.02800
C3097       C  0.14756050  0.91317688  0.12436264     0.07100
C3098       C  0.13589202  0.92295219  0.14921135    -0.03000
Br3099     Br  0.14974165  0.95542903  0.16623335    -0.01600
Br3100     Br  0.09668869  0.92606081  0.19324795    -0.01600
Br3101     Br  0.15386479  0.86879275  0.08511555    -0.01600
Br3102     Br  0.09519174  0.84649235  0.10911263    -0.01600
C3103       C  0.10907588  0.81175861  0.32395009    -0.02700
C3104       C  0.10452191  0.79371624  0.30204730     0.07000
C3105       C  0.10797657  0.76570969  0.30681653    -0.02800
C3106       C  0.11605362  0.75617378  0.33263567    -0.02800
C3107       C  0.12573992  0.77422549  0.35258112     0.07100
C3108       C  0.12031654  0.80215333  0.34887298    -0.03000
Br3109     Br  0.12975912  0.82749483  0.37673902    -0.01600
Br3110     Br  0.10360068  0.85010787  0.31822591    -0.01600
Br3111     Br  0.11769248  0.71788184  0.33969249    -0.01600
Br3112     Br  0.10779989  0.74050537  0.27707696    -0.01600
C3113       C  0.10981900  0.76183259  0.82842961    -0.02700
C3114       C  0.11845452  0.74350127  0.84884735     0.07000
C3115       C  0.10625196  0.71756849  0.84928083    -0.02800
C3116       C  0.09373666  0.70741953  0.82528800    -0.02800
C3117       C  0.09219328  0.72410768  0.80176192     0.07100
C3118       C  0.09567707  0.75233614  0.80547305    -0.03000
Br3119     Br  0.08168847  0.77796077  0.77903203    -0.01600
Br3120     Br  0.11788111  0.79988729  0.83144130    -0.01600
Br3121     Br  0.07778868  0.67171823  0.82513516    -0.01600
Br3122     Br  0.10402176  0.69772287  0.88291530    -0.01600
C3123       C  0.25840385  0.66712018  0.90805351    -0.02700
C3124       C  0.24840932  0.64723701  0.88972700     0.07000
C3125       C  0.22001354  0.64650207  0.88536996    -0.02800
C3126       C  0.20395475  0.66888372  0.89281995    -0.02800
C3127       C  0.21523014  0.69113376  0.90677992     0.07100
C3128       C  0.24158463  0.68854326  0.91709260    -0.03000
Br3129     Br  0.25424475  0.71449421  0.94335736    -0.01600
Br3130     Br  0.29417327  0.66425034  0.92254728    -0.01600
Br3131     Br  0.16648244  0.66970887  0.88273848    -0.01600
Br3132     Br  0.20224939  0.61575965  0.86865368    -0.01600
C3133       C  0.13383679  0.95837501  0.92360216    -0.02700
C3134       C  0.10548606  0.95983485  0.92130724     0.07000
C3135       C  0.08965745  0.96764913  0.94376553    -0.02800
C3136       C  0.10170768  0.97143020  0.96899292    -0.02800
C3137       C  0.12944095  0.96620993  0.97231412     0.07100
C3138       C  0.14588791  0.96084003  0.94953795    -0.03000
Br3139     Br  0.18451345  0.95787010  0.95388019    -0.01600
Br3140     Br  0.15579052  0.95319999  0.89165667    -0.01600
Br3141     Br  0.07922286  0.98294610  0.99895583    -0.01600
Br3142     Br  0.05102958  0.97305705  0.94077823    -0.01600
C3143       C  0.13696227  0.86323324  0.88187132    -0.02700
C3144       C  0.12701402  0.83879251  0.89360851     0.07000
C3145       C  0.09975026  0.83165965  0.88679395    -0.02800
C3146       C  0.08365486  0.84815605  0.86869696    -0.02800
C3147       C  0.09470407  0.87140885  0.85548992     0.07100
C3148       C  0.12253934  0.87697632  0.86098696    -0.03000
Br3149     Br  0.14248977  0.90284273  0.83876922    -0.01600
Br3150     Br  0.16910482  0.88066197  0.89603133    -0.01600
Br3151     Br  0.04678517  0.83793377  0.86131238    -0.01600
Br3152     Br  0.08337665  0.79988905  0.90306578    -0.01600
C3153       C  0.07547048  0.01997541  0.10042188    -0.02700
C3154       C  0.09912998  0.01839295  0.11635154     0.07000
C3155       C  0.09819206  0.02957329  0.14293990    -0.02800
C3156       C  0.07339735  0.04085714  0.15315664    -0.02800
C3157       C  0.04899019  0.03854784  0.13773649     0.07100
C3158       C  0.05062742  0.02539355  0.11225499    -0.03000
Br3159     Br  0.01945139  0.01114286  0.09340971    -0.01600
Br3160     Br  0.07655793  0.01831340  0.06107822    -0.01600
Br3161     Br  0.07324911  0.05915077  0.18775142    -0.01600
Br3162     Br  0.13087382  0.03112512  0.16412528    -0.01600
C3163       C  0.88399125  0.12491704  0.15220298    -0.02700
C3164       C  0.91133060  0.13197470  0.15797369     0.07000
C3165       C  0.92152730  0.15535796  0.14414064    -0.02800
C3166       C  0.90665560  0.16858301  0.12300524    -0.02800
C3167       C  0.87962427  0.16120471  0.11673872     0.07100
C3168       C  0.86924019  0.13795267  0.13074866    -0.03000
Br3169     Br  0.83723837  0.11995687  0.11759357    -0.01600
Br3170     Br  0.86526107  0.09858164  0.17478253    -0.01600
Br3171     Br  0.92581622  0.19291558  0.09876787    -0.01600
Br3172     Br  0.95453271  0.17229469  0.15620605    -0.01600
C3173       C  0.89798266  0.26738780  0.17256823    -0.02700
C3174       C  0.87091549  0.27083874  0.16372223     0.07000
C3175       C  0.85401061  0.28793782  0.17933354    -0.02800
C3176       C  0.86335145  0.30047639  0.20320057    -0.02800
C3177       C  0.88889665  0.29374743  0.21456114     0.07100
C3178       C  0.90690962  0.27847940  0.19804162    -0.03000
Br3179     Br  0.94349531  0.27229562  0.21003238    -0.01600
Br3180     Br  0.92218820  0.24613899  0.15074184    -0.01600
Br3181     Br  0.83993391  0.32740242  0.21971368    -0.01600
Br3182     Br  0.81630306  0.29284213  0.17031441    -0.01600
C3183       C  0.78471355  0.32493678  0.08032587    -0.02700
C3184       C  0.81074963  0.31599430  0.08749294     0.07000
C3185       C  0.82504488  0.33190727  0.10652574    -0.02800
C3186       C  0.81114732  0.35008781  0.12383455    -0.02800
C3187       C  0.78308132  0.35470739  0.12049016     0.07100
C3188       C  0.77041365  0.34312168  0.09739955    -0.03000
Br3189     Br  0.73316255  0.35076133  0.08988717    -0.01600
Br3190     Br  0.77006728  0.31402689  0.04591330    -0.01600
Br3191     Br  0.82992074  0.36420213  0.15484319    -0.01600
Br3192     Br  0.86287683  0.32425908  0.11213879    -0.01600
C3193       C  0.68754535  0.91481311  0.24749540    -0.02700
C3194       C  0.69725567  0.90977260  0.22098374     0.07000
C3195       C  0.68054461  0.89553406  0.20269054    -0.02800
C3196       C  0.65776781  0.88132705  0.21247156    -0.02800
C3197       C  0.65081034  0.88225200  0.24032153     0.07100
C3198       C  0.66411660  0.90129662  0.25709451    -0.03000
Br3199     Br  0.65096720  0.90787651  0.29332994    -0.01600
Br3200     Br  0.70774940  0.93858404  0.27095344    -0.01600
Br3201     Br  0.63888934  0.85723529  0.18851006    -0.01600
Br3202     Br  0.69151413  0.89156383  0.16519208    -0.01600
C3203       C  0.94066228  0.98283445  0.08515047    -0.02700
C3204       C  0.94351280  0.98412163  0.11372602     0.07000
C3205       C  0.94305382  0.96030145  0.12955182    -0.02800
C3206       C  0.94226057  0.93489590  0.11656456    -0.02800
C3207       C  0.94129386  0.93366185  0.08766640     0.07100
C3208       C  0.93832181  0.95775887  0.07229367    -0.03000
Br3209     Br  0.93004559  0.95709262  0.03359191    -0.01600
Br3210     Br  0.94100634  0.01518523  0.06281524    -0.01600
Br3211     Br  0.94439358  0.90241852  0.13872046    -0.01600
Br3212     Br  0.94584726  0.96261094  0.16876984    -0.01600
C3213       C  0.86306646  0.84168983  0.11142897    -0.02700
C3214       C  0.87625728  0.85643764  0.09063036     0.07000
C3215       C  0.87011727  0.88469712  0.08865362    -0.02800
C3216       C  0.85347848  0.89798129  0.10822106    -0.02800
C3217       C  0.84125075  0.88342731  0.12971699     0.07100
C3218       C  0.84592920  0.85482521  0.13069996    -0.03000
Br3219     Br  0.82940312  0.83259396  0.15831062    -0.01600
Br3220     Br  0.86709415  0.80274179  0.11197860    -0.01600
Br3221     Br  0.84748449  0.93664765  0.10593709    -0.01600
Br3222     Br  0.88345685  0.90618933  0.05906554    -0.01600
C3223       C  0.03831129  0.90321188  0.07738597    -0.02700
C3224       C  0.03408383  0.88353178  0.05676428     0.07000
C3225       C  0.05591254  0.87548834  0.04027734    -0.02800
C3226       C  0.08056301  0.88938204  0.04169828    -0.02800
C3227       C  0.08314170  0.91150128  0.05939264     0.07100
C3228       C  0.06286694  0.91732579  0.07845078    -0.03000
Br3229     Br  0.06866760  0.94451202  0.10608300    -0.01600
Br3230     Br  0.01073752  0.91260311  0.10358670    -0.01600
Br3231     Br  0.11050878  0.87885133  0.01877831    -0.01600
Br3232     Br  0.05268606  0.84498849  0.01651745    -0.01600
C3233       C  0.00067284  0.83765991  0.94524928    -0.02700
C3234       C  0.97253705  0.83753341  0.94738056     0.07000
C3235       C  0.95762423  0.84855421  0.92560945    -0.02800
C3236       C  0.97047381  0.86501084  0.90564754    -0.02800
C3237       C  0.99862089  0.87060638  0.90767683     0.07100
C3238       C  0.01377848  0.85612028  0.92751488    -0.03000
Br3239     Br  0.05167981  0.86321553  0.93292896    -0.01600
Br3240     Br  0.02012086  0.81195783  0.96706309    -0.01600
Br3241     Br  0.94840510  0.88308328  0.87874378    -0.01600
Br3242     Br  0.91911943  0.84272185  0.92534857    -0.01600
C3243       C  0.15797371  0.08301482  0.99528223    -0.02700
C3244       C  0.14109403  0.10264011  0.00741694     0.07000
C3245       C  0.13939986  0.10292716  0.03638521    -0.02800
C3246       C  0.15029801  0.08127094  0.05190276    -0.02800
C3247       C  0.16417688  0.05985705  0.03901210     0.07100
C3248       C  0.16967115  0.06196057  0.01094412    -0.03000
Br3249     Br  0.18989269  0.03363747  0.99326893    -0.01600
Br3250     Br  0.16437684  0.08418939  0.95691976    -0.01600
Br3251     Br  0.14313993  0.07881723  0.09065085    -0.01600
Br3252     Br  0.12014918  0.13107013  0.05545563    -0.01600
C3253       C  0.08328724  0.05948431  0.89121688    -0.02700
C3254       C  0.06005783  0.07403791  0.89825801     0.07000
C3255       C  0.03538468  0.06884388  0.88462541    -0.02800
C3256       C  0.03351345  0.04665092  0.86676934    -0.02800
C3257       C  0.05598012  0.02986489  0.86314034     0.07100
C3258       C  0.08145062  0.03827393  0.87249254    -0.03000
Br3259     Br  0.11367538  0.02096831  0.85921348    -0.01600
Br3260     Br  0.11713682  0.06728126  0.90851396    -0.01600
Br3261     Br  0.00132846  0.03972626  0.84574839    -0.01600
Br3262     Br  0.00396559  0.09079422  0.89129328    -0.01600
C3263       C  0.02054045  0.15101616  0.09173283    -0.02700
C3264       C  0.00777224  0.12511576  0.09244149     0.07000
C3265       C  0.01166470  0.10789972  0.06979299    -0.02800
C3266       C  0.03155504  0.11373654  0.05039744    -0.02800
C3267       C  0.04224914  0.14057162  0.04756683     0.07100
C3268       C  0.03600854  0.15940309  0.06843120    -0.03000
Br3269     Br  0.05013437  0.19583282  0.06626141    -0.01600
Br3270     Br  0.01606814  0.17551837  0.12169328    -0.01600
Br3271     Br  0.04526191  0.08216204  0.03109847    -0.01600
Br3272     Br  0.98951662  0.07599366  0.06323584    -0.01600
C3273       C  0.28879654  0.17469706  0.89903596    -0.02700
C3274       C  0.27318322  0.19861748  0.89604287     0.07000
C3275       C  0.24652736  0.19560172  0.88499709    -0.02800
C3276       C  0.23890128  0.17142778  0.87173273    -0.02800
C3277       C  0.25705230  0.14966580  0.86988160     0.07100
C3278       C  0.28020660  0.15019133  0.88656874    -0.03000
Br3279     Br  0.29731749  0.11656450  0.89563220    -0.01600
Br3280     Br  0.32142074  0.17462112  0.92057414    -0.01600
Br3281     Br  0.20285772  0.16777739  0.85717069    -0.01600
Br3282     Br  0.21936148  0.22375438  0.88732318    -0.01600
C3283       C  0.12924382  0.11595754  0.85929631    -0.02700
C3284       C  0.15622499  0.10832762  0.86555371     0.07000
C3285       C  0.16713160  0.11916140  0.89000455    -0.02800
C3286       C  0.15254303  0.13853708  0.90619404    -0.02800
C3287       C  0.12554807  0.14678415  0.89957919     0.07100
C3288       C  0.11490889  0.13587214  0.87474162    -0.03000
Br3289     Br  0.08175948  0.14959717  0.85908541    -0.01600
Br3290     Br  0.11039575  0.09617321  0.83097222    -0.01600
Br3291     Br  0.17187404  0.15642590  0.93529043    -0.01600
Br3292     Br  0.20216403  0.10707260  0.90201973    -0.01600
C3293       C  0.89796186  0.20029894  0.68400722    -0.02700
C3294       C  0.91385471  0.21316226  0.70421885     0.07000
C3295       C  0.91790244  0.24135733  0.70227316    -0.02800
C3296       C  0.90396833  0.25668334  0.68227959    -0.02800
C3297       C  0.88454186  0.24453210  0.66495907     0.07100
C3298       C  0.88310210  0.21574760  0.66476324    -0.03000
Br3299     Br  0.85875486  0.19683230  0.64062296    -0.01600
Br3300     Br  0.89292299  0.16139419  0.68604817    -0.01600
Br3301     Br  0.91213211  0.29427405  0.67836445    -0.01600
Br3302     Br  0.93898951  0.25957440  0.72988771    -0.01600
C3303       C  0.93662073  0.01394262  0.89141136    -0.02700
C3304       C  0.91128137  0.00369411  0.88490052     0.07000
C3305       C  0.90954310  0.98387415  0.86423399    -0.02800
C3306       C  0.93321704  0.96989737  0.85576349    -0.02800
C3307       C  0.95845622  0.97575430  0.86837516     0.07100
C3308       C  0.95968103  0.99854351  0.88646456    -0.03000
Br3309     Br  0.99049848  0.00825111  0.90893285    -0.01600
Br3310     Br  0.93931099  0.05040209  0.90514006    -0.01600
Br3311     Br  0.92986290  0.94080111  0.82981257    -0.01600
Br3312     Br  0.87526826  0.97686696  0.84696358    -0.01600
C3313       C  0.96065411  0.12434312  0.96349807    -0.02700
C3314       C  0.98383671  0.10819833  0.96684415     0.07000
C3315       C  0.98131541  0.08035199  0.97301137    -0.02800
C3316       C  0.95575900  0.06878826  0.97651293    -0.02800
C3317       C  0.93237021  0.08440162  0.97150177     0.07100
C3318       C  0.93483946  0.11244556  0.96583984    -0.03000
Br3319     Br  0.90334370  0.13449822  0.95998880    -0.01600
Br3320     Br  0.96432105  0.16245323  0.95483441    -0.01600
Br3321     Br  0.95324901  0.03116803  0.98809591    -0.01600
Br3322     Br  0.01247009  0.05675283  0.97302040    -0.01600
C3323       C  0.86972271  0.12540829  0.88997470    -0.02700
C3324       C  0.86290610  0.09819415  0.88381736     0.07000
C3325       C  0.87557885  0.08693255  0.86045510    -0.02800
C3326       C  0.89563081  0.10182827  0.84531091    -0.02800
C3327       C  0.90377754  0.12862912  0.85294637     0.07100
C3328       C  0.89142282  0.13922275  0.87688763    -0.03000
Br3329     Br  0.90544009  0.17116179  0.89480251    -0.01600
Br3330     Br  0.84688336  0.14510463  0.91482183    -0.01600
Br3331     Br  0.91396155  0.08362906  0.81582580    -0.01600
Br3332     Br  0.86418122  0.05202773  0.84735379    -0.01600
C3333       C  0.87214632  0.04167676  0.08881350    -0.02700
C3334       C  0.88671292  0.06637443  0.09036451     0.07000
C3335       C  0.88312064  0.08625061  0.07011298    -0.02800
C3336       C  0.86649427  0.08068169  0.04773054    -0.02800
C3337       C  0.85787457  0.05383789  0.04310559     0.07100
C3338       C  0.85874477  0.03488296  0.06445727    -0.03000
Br3339     Br  0.84157996  0.00006556  0.05992934    -0.01600
Br3340     Br  0.87232692  0.01626876  0.11874426    -0.01600
Br3341     Br  0.85655481  0.10951104  0.02308870    -0.01600
Br3342     Br  0.90366447  0.11943386  0.07077744    -0.01600
C3343       C  0.84500182  0.92840095  0.98188517    -0.02700
C3344       C  0.85443179  0.94342451  0.95920104     0.07000
C3345       C  0.87710560  0.93332854  0.94528442    -0.02800
C3346       C  0.89467658  0.91519303  0.95830230    -0.02800
C3347       C  0.88571764  0.90050247  0.98124479     0.07100
C3348       C  0.85901404  0.90481530  0.99049165    -0.03000
Br3349     Br  0.84130677  0.87839391  0.01333364    -0.01600
Br3350     Br  0.81422670  0.94098693  0.00199722    -0.01600
Br3351     Br  0.93167990  0.91332470  0.94613673    -0.01600
Br3352     Br  0.88312191  0.94193668  0.90792697    -0.01600
C3353       C  0.18951190  0.99499622  0.72158383    -0.02700
C3354       C  0.20796054  0.97315979  0.72324388     0.07000
C3355       C  0.22646355  0.97375785  0.74549428    -0.02800
C3356       C  0.22588589  0.99477501  0.76578417    -0.02800
C3357       C  0.20619476  0.01601316  0.76525161     0.07100
C3358       C  0.18824980  0.01564435  0.74217049    -0.03000
Br3359     Br  0.16216728  0.04405526  0.73673493    -0.01600
Br3360     Br  0.16777073  0.99806943  0.68890807    -0.01600
Br3361     Br  0.25279831  0.99362005  0.79433461    -0.01600
Br3362     Br  0.25279360  0.94511774  0.74884411    -0.01600
C3363       C  0.11505279  0.82786099  0.68143063    -0.02700
C3364       C  0.14108251  0.82288052  0.66923137     0.07000
C3365       C  0.14367825  0.79877518  0.65375716    -0.02800
C3366       C  0.12215552  0.78023530  0.65326619    -0.02800
C3367       C  0.10271050  0.78104808  0.67388004     0.07100
C3368       C  0.09719078  0.80592139  0.68583162    -0.03000
Br3369     Br  0.06469182  0.80912941  0.70716614    -0.01600
Br3370     Br  0.10281173  0.86324396  0.69302752    -0.01600
Br3371     Br  0.11738156  0.75518757  0.62366947    -0.01600
Br3372     Br  0.17606954  0.78807187  0.63544684    -0.01600
C3373       C  0.18846259  0.87530839  0.78916623    -0.02700
C3374       C  0.17767370  0.86182645  0.76640169     0.07000
C3375       C  0.16822755  0.83484899  0.76900306    -0.02800
C3376       C  0.17457180  0.81976680  0.79210792    -0.02800
C3377       C  0.18576705  0.83296432  0.81484956     0.07100
C3378       C  0.19285848  0.86072222  0.81341276    -0.03000
Br3379     Br  0.21385728  0.87730169  0.84212587    -0.01600
Br3380     Br  0.19914731  0.91289955  0.78674128    -0.01600
Br3381     Br  0.17159536  0.78053582  0.79010725    -0.01600
Br3382     Br  0.14864395  0.81722745  0.73991967    -0.01600
C3383       C  0.99725584  0.76849294  0.56803203    -0.02700
C3384       C  0.02246414  0.76738395  0.55318474     0.07000
C3385       C  0.02701052  0.74314868  0.53823987    -0.02800
C3386       C  0.00801839  0.72116437  0.53905400    -0.02800
C3387       C  0.98390516  0.72211335  0.55474178     0.07100
C3388       C  0.97923531  0.74585529  0.56968943    -0.03000
Br3389     Br  0.94827017  0.74657027  0.59377620    -0.01600
Br3390     Br  0.98445042  0.80120352  0.58499675    -0.01600
Br3391     Br  0.01548602  0.68892364  0.51885939    -0.01600
Br3392     Br  0.05918866  0.73921212  0.51631498    -0.01600
C3393       C  0.97217749  0.89503768  0.58452049    -0.02700
C3394       C  0.96981823  0.87223193  0.56736781     0.07000
C3395       C  0.94619475  0.86856867  0.55203459    -0.02800
C3396       C  0.92764036  0.88982814  0.54990759    -0.02800
C3397       C  0.93291901  0.91460777  0.56344242     0.07100
C3398       C  0.95578004  0.91746554  0.57997001    -0.03000
Br3399     Br  0.96626408  0.95221248  0.59451741    -0.01600
Br3400     Br  0.99576205  0.89509846  0.61584642    -0.01600
Br3401     Br  0.89659897  0.88572621  0.52625160    -0.01600
Br3402     Br  0.93757658  0.83324920  0.53788501    -0.01600
C3403       C  0.13181620  0.89211589  0.57309564    -0.02700
C3404       C  0.13280775  0.86336645  0.57104817     0.07000
C3405       C  0.15567401  0.85074297  0.58174982    -0.02800
C3406       C  0.17376685  0.86536592  0.59886691    -0.02800
C3407       C  0.16990993  0.89330628  0.60560304     0.07100
C3408       C  0.14884305  0.90646772  0.59155160    -0.03000
Br3409     Br  0.14217111  0.94395461  0.59898413    -0.01600
Br3410     Br  0.11151831  0.91280262  0.54723234    -0.01600
Br3411     Br  0.20271442  0.84550019  0.61335526    -0.01600
Br3412     Br  0.16301907  0.81397247  0.57031174    -0.01600
C3413       C  0.10829203  0.95194610  0.46650236    -0.02700
C3414       C  0.13691163  0.94971955  0.46404628     0.07000
C3415       C  0.14856041  0.92398394  0.46877943    -0.02800
C3416       C  0.13184679  0.90152668  0.47636961    -0.02800
C3417       C  0.10323027  0.90410347  0.47631842     0.07100
C3418       C  0.09208724  0.92878124  0.46774562    -0.03000
Br3419     Br  0.05412927  0.93138194  0.45831091    -0.01600
Br3420     Br  0.08989471  0.98484993  0.47659091    -0.01600
Br3421     Br  0.14829826  0.86834403  0.48859577    -0.01600
Br3422     Br  0.18731482  0.92075398  0.46888633    -0.01600
C3423       C  0.25149339  0.18079619  0.51190252    -0.02700
C3424       C  0.23063721  0.20077608  0.51517099     0.07000
C3425       C  0.23136118  0.22308717  0.49670145    -0.02800
C3426       C  0.25194788  0.22505154  0.47615115    -0.02800
C3427       C  0.27400287  0.20662167  0.47526006     0.07100
C3428       C  0.27376370  0.18513390  0.49415806    -0.03000
Br3429     Br  0.30438636  0.16103026  0.49528316    -0.01600
Br3430     Br  0.24885768  0.14501144  0.52839506    -0.01600
Br3431     Br  0.24949371  0.25270124  0.44854836    -0.01600
Br3432     Br  0.20383350  0.25062495  0.49846162    -0.01600
C3433       C  0.25957139  0.33042089  0.60820062    -0.02700
C3434       C  0.23970479  0.34719233  0.61984228     0.07000
C3435       C  0.21234014  0.34273814  0.61277511    -0.02800
C3436       C  0.20495170  0.32064375  0.59597928    -0.02800
C3437       C  0.22490558  0.30257949  0.58655134     0.07100
C3438       C  0.25219283  0.30991239  0.58977225    -0.03000
Br3439     Br  0.27946440  0.28892233  0.57196213    -0.01600
Br3440     Br  0.29529171  0.32933196  0.62353863    -0.01600
Br3441     Br  0.16721307  0.31189541  0.59073743    -0.01600
Br3442     Br  0.18457665  0.36246293  0.63130982    -0.01600
C3443       C  0.18457978  0.14449087  0.68496959    -0.02700
C3444       C  0.20824562  0.15316847  0.67178981     0.07000
C3445       C  0.23325214  0.14079214  0.67743403    -0.02800
C3446       C  0.23411206  0.11822081  0.69443536    -0.02800
C3447       C  0.21139508  0.11179489  0.71004137     0.07100
C3448       C  0.18610859  0.12360125  0.70421828    -0.03000
Br3449     Br  0.15457384  0.11478692  0.72577239    -0.01600
Br3450     Br  0.15177629  0.16525419  0.68133015    -0.01600
Br3451     Br  0.26738262  0.09876248  0.70013835    -0.01600
Br3452     Br  0.26690104  0.15747326  0.66718317    -0.01600
C3453       C  0.06672226  0.97894398  0.75086113    -0.02700
C3454       C  0.04388762  0.97512296  0.76796518     0.07000
C3455       C  0.02244176  0.99433843  0.76488306    -0.02800
C3456       C  0.02426352  0.01665842  0.74588532    -0.02800
C3457       C  0.04771197  0.02096906  0.72966336     0.07100
C3458       C  0.06903887  0.00191564  0.73326760    -0.03000
Br3459     Br  0.10313684  0.00805111  0.71542607    -0.01600
Br3460     Br  0.09460187  0.95145685  0.74944010    -0.01600
Br3461     Br  0.99422564  0.04113969  0.74200247    -0.01600
Br3462     Br  0.99004574  0.99056033  0.78654776    -0.01600
C3463       C  0.11524675  0.08491755  0.56127433    -0.02700
C3464       C  0.10676530  0.06278897  0.57745677     0.07000
C3465       C  0.12153099  0.03837394  0.57582835    -0.02800
C3466       C  0.14023088  0.03453249  0.55469045    -0.02800
C3467       C  0.14630181  0.05593279  0.53673672     0.07100
C3468       C  0.13578629  0.08183722  0.54176884    -0.03000
Br3469     Br  0.14677074  0.11223921  0.51917120    -0.01600
Br3470     Br  0.09851966  0.11917051  0.56442601    -0.01600
Br3471     Br  0.15466151  0.99895956  0.54753410    -0.01600
Br3472     Br  0.11698535  0.01014332  0.60235771    -0.01600
C3473       C  0.92940833  0.99934499  0.65201672    -0.02700
C3474       C  0.90597939  0.01360320  0.64364060     0.07000
C3475       C  0.90471965  0.04152760  0.65007230    -0.02800
C3476       C  0.92852134  0.05546632  0.65807815    -0.02800
C3477       C  0.95347915  0.04189023  0.65827214     0.07100
C3478       C  0.95330494  0.01346231  0.65864518    -0.03000
Br3479     Br  0.98577139  0.99418393  0.66840956    -0.01600
Br3480     Br  0.92884902  0.96051983  0.65425449    -0.01600
Br3481     Br  0.92687282  0.09156635  0.67230751    -0.01600
Br3482     Br  0.87109031  0.06062675  0.64852702    -0.01600
C3483       C  0.05731647  0.93361317  0.61228486    -0.02700
C3484       C  0.05152225  0.93153792  0.58398171     0.07000
C3485       C  0.04401005  0.95511374  0.56916414    -0.02800
C3486       C  0.04105189  0.97988256  0.58258118    -0.02800
C3487       C  0.04625375  0.98177355  0.61071482     0.07100
C3488       C  0.05434758  0.95872728  0.62561496    -0.03000
Br3489     Br  0.05934544  0.96125843  0.66462168    -0.01600
Br3490     Br  0.06836327  0.90241460  0.63355338    -0.01600
Br3491     Br  0.03035351  0.01155919  0.56179927    -0.01600
Br3492     Br  0.03886519  0.95479118  0.52993502    -0.01600
C3493       C  0.10410845  0.16893678  0.61762065    -0.02700
C3494       C  0.12982208  0.15997536  0.60876951     0.07000
C3495       C  0.13869030  0.13422013  0.61868167    -0.02800
C3496       C  0.12394944  0.11969138  0.63909831    -0.02800
C3497       C  0.09802672  0.12851488  0.64816275     0.07100
C3498       C  0.08862576  0.15382439  0.63713881    -0.03000
Br3499     Br  0.05491261  0.16969255  0.64912329    -0.01600
Br3500     Br  0.08838534  0.20061277  0.60021112    -0.01600
Br3501     Br  0.14143809  0.08866938  0.65579108    -0.01600
Br3502     Br  0.17034584  0.11685570  0.60339599    -0.01600
C3503       C  0.52366823  0.24581791  0.23216259    -0.02700
C3504       C  0.52510949  0.22692712  0.21030091     0.07000
C3505       C  0.50470682  0.22855580  0.19015264    -0.02800
C3506       C  0.48457751  0.24923216  0.19076922    -0.02800
C3507       C  0.48412510  0.26971283  0.21142122     0.07100
C3508       C  0.50406119  0.26717850  0.23240537    -0.03000
Br3509     Br  0.50587621  0.29325252  0.26172497    -0.01600
Br3510     Br  0.54859553  0.24268259  0.26244162    -0.01600
Br3511     Br  0.45685420  0.24739651  0.16333902    -0.01600
Br3512     Br  0.50267933  0.20050176  0.16265614    -0.01600
C3513       C  0.64672301  0.25714247  0.32561012    -0.02700
C3514       C  0.64258657  0.24120565  0.34888155     0.07000
C3515       C  0.62239170  0.22099075  0.34789701    -0.02800
C3516       C  0.61178465  0.21233152  0.32235774    -0.02800
C3517       C  0.62155809  0.22411226  0.29767682     0.07100
C3518       C  0.63786673  0.24809352  0.29998876    -0.03000
Br3519     Br  0.65059182  0.26901540  0.26901537    -0.01600
Br3520     Br  0.66138950  0.29325505  0.32965205    -0.01600
Br3521     Br  0.58441048  0.18440813  0.32200960    -0.01600
Br3522     Br  0.60696737  0.20804716  0.38147997    -0.01600
C3523       C  0.68171635  0.20790353  0.11962130    -0.02700
C3524       C  0.68043746  0.21022599  0.14813718     0.07000
C3525       C  0.70174131  0.22258096  0.16268429    -0.02800
C3526       C  0.72431980  0.23175721  0.14848414    -0.02800
C3527       C  0.72787097  0.22365080  0.12116502     0.07100
C3528       C  0.70649590  0.21171591  0.10660492    -0.03000
Br3529     Br  0.71111651  0.19880579  0.06990866    -0.01600
Br3530     Br  0.65005288  0.20050238  0.09826280    -0.01600
Br3531     Br  0.75064545  0.25394945  0.16745649    -0.01600
Br3532     Br  0.70103430  0.22681629  0.20199143    -0.01600
C3533       C  0.65024968  0.31873235  0.21220456    -0.02700
C3534       C  0.67176037  0.31890613  0.19303580     0.07000
C3535       C  0.66951750  0.30353313  0.16910376    -0.02800
C3536       C  0.64716578  0.28629282  0.16568420    -0.02800
C3537       C  0.62846245  0.28258197  0.18709305     0.07100
C3538       C  0.62834422  0.30085265  0.20875301    -0.03000
Br3539     Br  0.59784069  0.30056699  0.23321790    -0.01600
Br3540     Br  0.65124507  0.34159720  0.24406940    -0.01600
Br3541     Br  0.64093744  0.26898047  0.13119205    -0.01600
Br3542     Br  0.69666056  0.30636257  0.14100272    -0.01600
C3543       C  0.73607731  0.01668180  0.00818667    -0.02700
C3544       C  0.72951583  0.03886606  0.02516448     0.07000
C3545       C  0.74335342  0.06358668  0.01987825    -0.02800
C3546       C  0.76384656  0.06583934  0.99921957    -0.02800
C3547       C  0.77090590  0.04335874  0.98207504     0.07100
C3548       C  0.75649063  0.01857634  0.98743597    -0.03000
Br3549     Br  0.76367894  0.98625039  0.96653147    -0.01600
Br3550     Br  0.71529749  0.98374616  0.01224934    -0.01600
Br3551     Br  0.78181702  0.10060735  0.99548517    -0.01600
Br3552     Br  0.73319845  0.09516714  0.04070807    -0.01600
C3553       C  0.65066588  0.91844944  0.04786885    -0.02700
C3554       C  0.64544774  0.94580522  0.04120894     0.07000
C3555       C  0.62869073  0.95071731  0.01873029    -0.02800
C3556       C  0.61035056  0.93105233  0.00981525    -0.02800
C3557       C  0.61507939  0.90343330  0.01583734     0.07100
C3558       C  0.63759831  0.89727519  0.03295966    -0.03000
Br3559     Br  0.65097469  0.86077182  0.03596104    -0.01600
Br3560     Br  0.67608209  0.91031902  0.07637332    -0.01600
Br3561     Br  0.57946666  0.94370687  0.98951437    -0.01600
Br3562     Br  0.64124026  0.97582871  0.99189754    -0.01600
C3563       C  0.58473804  0.11388333  0.04518958    -0.02700
C3564       C  0.58145353  0.09682929  0.06833710     0.07000
C3565       C  0.56039328  0.10180680  0.08675797    -0.02800
C3566       C  0.54359808  0.12419869  0.08247440    -0.02800
C3567       C  0.54310345  0.13674992  0.05663661     0.07100
C3568       C  0.56395495  0.13174021  0.03797457    -0.03000
Br3569     Br  0.56195716  0.14625788  0.00135172    -0.01600
Br3570     Br  0.61649948  0.11276458  0.02249622    -0.01600
Br3571     Br  0.52065551  0.13689482  0.11145495    -0.01600
Br3572     Br  0.55341897  0.07765756  0.11676040    -0.01600
C3573       C  0.64469401  0.08357771  0.15735846    -0.02700
C3574       C  0.65396792  0.08924690  0.13031175     0.07000
C3575       C  0.64417270  0.11363250  0.11833200    -0.02800
C3576       C  0.62226289  0.12806746  0.13005877    -0.02800
C3577       C  0.61361957  0.12349713  0.15748267     0.07100
C3578       C  0.62516388  0.10054866  0.17078978    -0.03000
Br3579     Br  0.61357122  0.09105087  0.20705966    -0.01600
Br3580     Br  0.66136969  0.05458902  0.17786536    -0.01600
Br3581     Br  0.60208095  0.15223420  0.10649197    -0.01600
Br3582     Br  0.66136564  0.12920212  0.08632961    -0.01600
C3583       C  0.77276738  0.18885354  0.97320522    -0.02700
C3584       C  0.74648379  0.20158111  0.97375975     0.07000
C3585       C  0.74213291  0.21990495  0.99573798    -0.02800
C3586       C  0.76200079  0.22370022  0.01667351    -0.02800
C3587       C  0.78713751  0.20984651  0.01680597     0.07100
C3588       C  0.79222909  0.19260290  0.99459657    -0.03000
Br3589     Br  0.82582282  0.17286420  0.99452756    -0.01600
Br3590     Br  0.78378948  0.16575152  0.94348452    -0.01600
Br3591     Br  0.75453565  0.24792649  0.04628738    -0.01600
Br3592     Br  0.70919828  0.24074637  0.99782513    -0.01600
C3593       C  0.79352093  0.20876071  0.87132668    -0.02700
C3594       C  0.77789904  0.18711963  0.86107875     0.07000
C3595       C  0.79013552  0.16652449  0.84576086    -0.02800
C3596       C  0.81791420  0.16742774  0.84092305    -0.02800
C3597       C  0.83280709  0.19056479  0.84837502     0.07100
C3598       C  0.82100632  0.21061201  0.86467729    -0.03000
Br3599     Br  0.84263167  0.24035201  0.87778783    -0.01600
Br3600     Br  0.77716464  0.23636075  0.89349173    -0.01600
Br3601     Br  0.83521168  0.13660319  0.82466323    -0.01600
Br3602     Br  0.76869180  0.13966312  0.82735984    -0.01600
C3603       C  0.57156175  0.96388522  0.75813315    -0.02700
C3604       C  0.55314823  0.96534680  0.73616373     0.07000
C3605       C  0.53563827  0.98814641  0.73547646    -0.02800
C3606       C  0.53854939  0.01020099  0.75409642    -0.02800
C3607       C  0.55769752  0.00929985  0.77584993     0.07100
C3608       C  0.57404345  0.98535368  0.77757312    -0.03000
Br3609     Br  0.59991610  0.98051670  0.80687678    -0.01600
Br3610     Br  0.59055173  0.93014146  0.76357052    -0.01600
Br3611     Br  0.51639086  0.04204676  0.74832248    -0.01600
Br3612     Br  0.50599437  0.98889902  0.71011742    -0.01600
C3613       C  0.47200939  0.15991492  0.92040229    -0.02700
C3614       C  0.46919210  0.14417994  0.94451544     0.07000
C3615       C  0.47153944  0.11573378  0.94221993    -0.02800
C3616       C  0.47097688  0.10406082  0.91671284    -0.02800
C3617       C  0.48225966  0.11831540  0.89463002     0.07100
C3618       C  0.48086056  0.14706721  0.89575928    -0.03000
Br3619     Br  0.48836904  0.16814315  0.86368157    -0.01600
Br3620     Br  0.46667561  0.19846200  0.92219280    -0.01600
Br3621     Br  0.45758227  0.06757870  0.91388369    -0.01600
Br3622     Br  0.48483021  0.09206037  0.97079643    -0.01600
C3623       C  0.56364030  0.02685491  0.96464854    -0.02700
C3624       C  0.57952266  0.02961506  0.94101504     0.07000
C3625       C  0.60783794  0.03145162  0.94288195    -0.02800
C3626       C  0.61991779  0.03547984  0.96824717    -0.02800
C3627       C  0.60408950  0.03287309  0.99179573     0.07100
C3628       C  0.57616322  0.02737712  0.99016379    -0.03000
Br3629     Br  0.55496518  0.02114013  0.02268426    -0.01600
Br3630     Br  0.52508782  0.02076507  0.96195358    -0.01600
Br3631     Br  0.65828837  0.04289263  0.97088062    -0.01600
Br3632     Br  0.63036841  0.02565002  0.91171917    -0.01600
C3633       C  0.50736638  0.95680782  0.90296854    -0.02700
C3634       C  0.52194530  0.96118737  0.87856755     0.07000
C3635       C  0.53802993  0.93996355  0.86854602    -0.02800
C3636       C  0.54446212  0.91794171  0.88565198    -0.02800
C3637       C  0.53509834  0.91760265  0.91295569     0.07100
C3638       C  0.51595923  0.93685843  0.92131271    -0.03000
Br3639     Br  0.50181249  0.93679463  0.95786283    -0.01600
Br3640     Br  0.47519780  0.97754917  0.91096520    -0.01600
Br3641     Br  0.56720364  0.88934669  0.87172751    -0.01600
Br3642     Br  0.54893687  0.93960759  0.83097808    -0.01600
C3643       C  0.62836121  0.10028491  0.88079564    -0.02700
C3644       C  0.60221568  0.10786848  0.87142389     0.07000
C3645       C  0.59193981  0.13278360  0.88140298    -0.02800
C3646       C  0.60742816  0.14973374  0.89924635    -0.02800
C3647       C  0.63352958  0.14183138  0.90881931     0.07100
C3648       C  0.64229038  0.11543956  0.90115117    -0.03000
Br3649     Br  0.67261297  0.09838263  0.91929598    -0.01600
Br3650     Br  0.64712103  0.07066690  0.86341719    -0.01600
Br3651     Br  0.59094165  0.18272100  0.91244677    -0.01600
Br3652     Br  0.55612324  0.14401619  0.87125487    -0.01600
C3653       C  0.35202301  0.23330550  0.78451618    -0.02700
C3654       C  0.37475617  0.21563612  0.78613202     0.07000
C3655       C  0.38892415  0.21474606  0.81136926    -0.02800
C3656       C  0.37822084  0.22806147  0.83489990    -0.02800
C3657       C  0.35528524  0.24524783  0.83252957     0.07100
C3658       C  0.34530392  0.25039203  0.80622049    -0.03000
Br3659     Br  0.32353798  0.28221877  0.79903924    -0.01600
Br3660     Br  0.32599929  0.23281111  0.75533866    -0.01600
Br3661     Br  0.39458399  0.22181614  0.87007476    -0.01600
Br3662     Br  0.42152386  0.19364623  0.81458651    -0.01600
C3663       C  0.33588376  0.08593804  0.74291402    -0.02700
C3664       C  0.35109049  0.10715948  0.75483411     0.07000
C3665       C  0.34998090  0.11002060  0.78361511    -0.02800
C3666       C  0.33009726  0.09588088  0.79872712    -0.02800
C3667       C  0.31070607  0.07974051  0.78548234     0.07100
C3668       C  0.31604309  0.07201688  0.75839916    -0.03000
Br3669     Br  0.29404827  0.04388436  0.74252056    -0.01600
Br3670     Br  0.34229148  0.07575656  0.70575423    -0.01600
Br3671     Br  0.32745585  0.10087248  0.83719814    -0.01600
Br3672     Br  0.37320381  0.13518238  0.80273369    -0.01600
C3673       C  0.31776007  0.14847871  0.62359842    -0.02700
C3674       C  0.33599477  0.17031798  0.62575529     0.07000
C3675       C  0.33418301  0.19216675  0.60696677    -0.02800
C3676       C  0.31006431  0.19559861  0.59234795    -0.02800
C3677       C  0.28883223  0.17723083  0.59655081     0.07100
C3678       C  0.29531331  0.15113673  0.60641515    -0.03000
Br3679     Br  0.27312372  0.12000888  0.59806752    -0.01600
Br3680     Br  0.32126356  0.11682280  0.64650421    -0.01600
Br3681     Br  0.30554148  0.22497667  0.56703229    -0.01600
Br3682     Br  0.36202198  0.21960005  0.60404272    -0.01600
C3683       C  0.32255735  0.26295167  0.68148607    -0.02700
C3684       C  0.34933912  0.26110419  0.69022171     0.07000
C3685       C  0.36141193  0.28210997  0.70512692    -0.02800
C3686       C  0.34612652  0.30485037  0.71255656    -0.02800
C3687       C  0.31895610  0.30708204  0.70340953     0.07100
C3688       C  0.30701962  0.28505477  0.68926865    -0.03000
Br3689     Br  0.26861497  0.28162035  0.68462868    -0.01600
Br3690     Br  0.30690712  0.23438655  0.65941368    -0.01600
Br3691     Br  0.36218606  0.33022538  0.73793905    -0.01600
Br3692     Br  0.39871536  0.27910299  0.71587886    -0.01600
C3693       C  0.28096664  0.06042888  0.49496275    -0.02700
C3694       C  0.28253549  0.04001752  0.51571410     0.07000
C3695       C  0.26192585  0.01994515  0.51560934    -0.02800
C3696       C  0.24024020  0.02072185  0.49618656    -0.02800
C3697       C  0.23864152  0.04118519  0.47549381     0.07100
C3698       C  0.25964087  0.06085737  0.47522696    -0.03000
Br3699     Br  0.26056794  0.08764010  0.44635771    -0.01600
Br3700     Br  0.30817842  0.08860819  0.49313608    -0.01600
Br3701     Br  0.21224799  0.99360148  0.49897301    -0.01600
Br3702     Br  0.26439797  0.98978420  0.54074429    -0.01600
C3703       C  0.43260967  0.01059438  0.47589638    -0.02700
C3704       C  0.40493299  0.01727476  0.47650945     0.07000
C3705       C  0.39057079  0.02126704  0.45215769    -0.02800
C3706       C  0.40395459  0.01884833  0.42707165    -0.02800
C3707       C  0.43237848  0.01532042  0.42645892     0.07100
C3708       C  0.44632536  0.00966374  0.45097477    -0.03000
Br3709     Br  0.48430319  0.00049957  0.45106356    -0.01600
Br3710     Br  0.45283771  0.00536638  0.50925272    -0.01600
Br3711     Br  0.38252980  0.02019556  0.39430049    -0.01600
Br3712     Br  0.35291691  0.03145117  0.45307542    -0.01600
C3713       C  0.34992588  0.94368575  0.50591280    -0.02700
C3714       C  0.34642536  0.93892474  0.53377527     0.07000
C3715       C  0.35379366  0.91346756  0.54436020    -0.02800
C3716       C  0.36767420  0.89450306  0.52789082    -0.02800
C3717       C  0.37792514  0.90250783  0.50182622     0.07100
C3718       C  0.36749220  0.92716852  0.49058221    -0.03000
Br3719     Br  0.37817249  0.94116406  0.45561724    -0.01600
Br3720     Br  0.33300921  0.97530018  0.49032256    -0.01600
Br3721     Br  0.37161100  0.85814510  0.54184984    -0.01600
Br3722     Br  0.34644798  0.90589806  0.58229478    -0.01600
C3723       C  0.39696769  0.12714898  0.62294414    -0.02700
C3724       C  0.40646265  0.11914275  0.64926223     0.07000
C3725       C  0.40182694  0.09177233  0.65652998    -0.02800
C3726       C  0.38391422  0.07476150  0.64133501    -0.02800
C3727       C  0.37054167  0.08409053  0.61705855     0.07100
C3728       C  0.37827741  0.11066917  0.60783290    -0.03000
Br3729     Br  0.36288857  0.12609414  0.57488903    -0.01600
Br3730     Br  0.41238524  0.15874175  0.60511087    -0.01600
Br3731     Br  0.37873380  0.03849236  0.65529596    -0.01600
Br3732     Br  0.42406246  0.07615600  0.68496212    -0.01600
C3733       C  0.42978465  0.96420603  0.60464930    -0.02700
C3734       C  0.40668449  0.96869898  0.62098937     0.07000
C3735       C  0.40867048  0.96232885  0.64909417    -0.02800
C3736       C  0.43415976  0.95448852  0.66043771    -0.02800
C3737       C  0.45794619  0.95654492  0.64432867     0.07100
C3738       C  0.45521113  0.96322062  0.61646741    -0.03000
Br3739     Br  0.48485629  0.97619875  0.59392281    -0.01600
Br3740     Br  0.42836267  0.96092050  0.56550258    -0.01600
Br3741     Br  0.43693380  0.94420591  0.69822208    -0.01600
Br3742     Br  0.37678450  0.96395949  0.67139118    -0.01600
C3743       C  0.49013729  0.24250713  0.57479451    -0.02700
C3744       C  0.48561768  0.26066008  0.55281689     0.07000
C3745       C  0.50087818  0.25599084  0.52856683    -0.02800
C3746       C  0.52093597  0.23492696  0.52706697    -0.02800
C3747       C  0.52592640  0.21728622  0.54952772     0.07100
C3748       C  0.50965045  0.22136295  0.57322231    -0.03000
Br3749     Br  0.51432690  0.19861151  0.60499137    -0.01600
Br3750     Br  0.46846581  0.24593783  0.60743082    -0.01600
Br3751     Br  0.54105890  0.22988430  0.49376401    -0.01600
Br3752     Br  0.49477361  0.27858034  0.49712743    -0.01600
C3753       C  0.64366031  0.09512410  0.46679066    -0.02700
C3754       C  0.64321576  0.09296036  0.49570384     0.07000
C3755       C  0.66041678  0.07357222  0.50803916    -0.02800
C3756       C  0.67242374  0.05296614  0.49227471    -0.02800
C3757       C  0.67094313  0.05389520  0.46357624     0.07100
C3758       C  0.65938033  0.07697342  0.45123767    -0.03000
Br3759     Br  0.66150201  0.08063115  0.41211810    -0.01600
Br3760     Br  0.61961813  0.11923194  0.44742961    -0.01600
Br3761     Br  0.68619458  0.02115920  0.51039147    -0.01600
Br3762     Br  0.66792259  0.07491926  0.54636687    -0.01600
C3763       C  0.51704608  0.10209709  0.46365008    -0.02700
C3764       C  0.53666421  0.12325015  0.46329719     0.07000
C3765       C  0.54000235  0.13826219  0.43874417    -0.02800
C3766       C  0.52731497  0.12932037  0.41432022    -0.02800
C3767       C  0.51067320  0.10595619  0.41476047     0.07100
C3768       C  0.50242104  0.09586048  0.44008788    -0.03000
Br3769     Br  0.46817623  0.07745144  0.44306220    -0.01600
Br3770     Br  0.51031059  0.07901229  0.49463726    -0.01600
Br3771     Br  0.53174455  0.14966473  0.38096270    -0.01600
Br3772     Br  0.56356733  0.16944242  0.43769682    -0.01600
C3773       C  0.56199708  0.08023595  0.64256026    -0.02700
C3774       C  0.58354693  0.07922721  0.62373190     0.07000
C3775       C  0.60268802  0.05860363  0.62625466    -0.02800
C3776       C  0.59798664  0.03731652  0.64454671    -0.02800
C3777       C  0.57220038  0.03394910  0.65617815     0.07100
C3778       C  0.55467715  0.05637601  0.65671068    -0.03000
Br3779     Br  0.51959854  0.05343564  0.67332425    -0.01600
Br3780     Br  0.54217689  0.11338393  0.64792950    -0.01600
Br3781     Br  0.62605208  0.01183972  0.65151652    -0.01600
Br3782     Br  0.63491667  0.05914613  0.60470191    -0.01600
C3783       C  0.48728300  0.07587368  0.58292830    -0.02700
C3784       C  0.49230018  0.09912531  0.56709372     0.07000
C3785       C  0.47140744  0.11109645  0.55178663    -0.02800
C3786       C  0.44629538  0.09791026  0.55002914    -0.02800
C3787       C  0.44160736  0.07431693  0.56573024     0.07100
C3788       C  0.46127615  0.06499797  0.58410072    -0.03000
Br3789     Br  0.45225059  0.03901932  0.61215328    -0.01600
Br3790     Br  0.51646597  0.05628437  0.59943031    -0.01600
Br3791     Br  0.41942405  0.11092483  0.52458540    -0.01600
Br3792     Br  0.47761450  0.14465506  0.53236452    -0.01600
C3793       C  0.69061213  0.99827848  0.73240677    -0.02700
C3794       C  0.71447146  0.01333628  0.72723235     0.07000
C3795       C  0.73591838  0.00990357  0.74648321    -0.02800
C3796       C  0.73306519  0.99274240  0.77004990    -0.02800
C3797       C  0.70878616  0.97813201  0.77506675     0.07100
C3798       C  0.68726821  0.98247150  0.75634092    -0.03000
Br3799     Br  0.65183561  0.96758135  0.76331829    -0.01600
Br3800     Br  0.66303706  0.99570912  0.70506514    -0.01600
Br3801     Br  0.76272266  0.98970435  0.79545354    -0.01600
Br3802     Br  0.77021323  0.02719335  0.74050544    -0.01600
C3803       C  0.85361493  0.10555355  0.73994717    -0.02700
C3804       C  0.85247719  0.13294953  0.74845846     0.07000
C3805       C  0.82779235  0.14685216  0.74542526    -0.02800
C3806       C  0.80384442  0.13258928  0.74155980    -0.02800
C3807       C  0.80439862  0.10571783  0.73153331     0.07100
C3808       C  0.82981591  0.09253792  0.72972332    -0.03000
Br3809     Br  0.83173093  0.05624082  0.71569343    -0.01600
Br3810     Br  0.88707146  0.08598669  0.74252461    -0.01600
Br3811     Br  0.77124715  0.15049818  0.75367388    -0.01600
Br3812     Br  0.82620473  0.18612668  0.74456388    -0.01600
C3813       C  0.78558565  0.18861557  0.61951920    -0.02700
C3814       C  0.78005228  0.21381789  0.63197797     0.07000
C3815       C  0.76273855  0.21397835  0.65482001    -0.02800
C3816       C  0.75622560  0.19003777  0.66868842    -0.02800
C3817       C  0.76183454  0.16454580  0.65682241     0.07100
C3818       C  0.77577433  0.16408350  0.63145291    -0.03000
Br3819     Br  0.78439664  0.13000991  0.61452987    -0.01600
Br3820     Br  0.80712096  0.18748173  0.58679655    -0.01600
Br3821     Br  0.74029503  0.19388097  0.70461710    -0.01600
Br3822     Br  0.74586507  0.24687041  0.66681656    -0.01600
C3823       C  0.71007023  0.08448359  0.81358431    -0.02700
C3824       C  0.69014781  0.08403698  0.79320597     0.07000
C3825       C  0.66554243  0.09677678  0.79837836    -0.02800
C3826       C  0.66529608  0.11889370  0.81612456    -0.02800
C3827       C  0.68639411  0.12169205  0.83511493     0.07100
C3828       C  0.70679887  0.10165994  0.83617353    -0.03000
Br3829     Br  0.73069974  0.09845043  0.86712724    -0.01600
Br3830     Br  0.74303405  0.06471806  0.80822610    -0.01600
Br3831     Br  0.63789919  0.14579757  0.81228288    -0.01600
Br3832     Br  0.63364454  0.08469846  0.77973212    -0.01600
C3833       C  0.66371357  0.13974899  0.58715673    -0.02700
C3834       C  0.63837812  0.15121259  0.59491169     0.07000
C3835       C  0.63028655  0.14651563  0.62212969    -0.02800
C3836       C  0.64178691  0.12520762  0.63775780    -0.02800
C3837       C  0.66712421  0.11283952  0.63043455     0.07100
C3838       C  0.67853658  0.12210625  0.60529396    -0.03000
Br3839     Br  0.71508014  0.11266880  0.59612183    -0.01600
Br3840     Br  0.67994792  0.15065640  0.55294518    -0.01600
Br3841     Br  0.61995560  0.11299503  0.66837248    -0.01600
Br3842     Br  0.60354043  0.16970963  0.63907830    -0.01600
C3843       C  0.25865399  0.81360843  0.97432916    -0.02700
C3844       C  0.23587006  0.79524374  0.97383158     0.07000
C3845       C  0.23485836  0.77578605  0.99529264    -0.02800
C3846       C  0.25482442  0.77542448  0.01650260    -0.02800
C3847       C  0.27576200  0.79522340  0.01820188     0.07100
C3848       C  0.27771704  0.81373547  0.99633859    -0.03000
Br3849     Br  0.30837355  0.83810012  0.99597332    -0.01600
Br3850     Br  0.26558381  0.83882922  0.94476290    -0.01600
Br3851     Br  0.25475273  0.74571851  0.04172151    -0.01600
Br3852     Br  0.20711812  0.74806586  0.99523353    -0.01600
C3853       C  0.38332942  0.71738584  0.15033388    -0.02700
C3854       C  0.36822083  0.74059482  0.15887893     0.07000
C3855       C  0.37665015  0.75338940  0.18329023    -0.02800
C3856       C  0.39765433  0.74218779  0.19911532    -0.02800
C3857       C  0.40747347  0.71605520  0.19409574     0.07100
C3858       C  0.40264628  0.70541171  0.16811463    -0.03000
Br3859     Br  0.42608301  0.67686205  0.15639872    -0.01600
Br3860     Br  0.37786647  0.70057751  0.11529976    -0.01600
Br3861     Br  0.41711937  0.76454317  0.22401559    -0.01600
Br3862     Br  0.36053078  0.78654519  0.19577602    -0.01600
C3863       C  0.27229166  0.87711811  0.20952660    -0.02700
C3864       C  0.29508476  0.88978052  0.22069714     0.07000
C3865       C  0.32048919  0.88635516  0.20832381    -0.02800
C3866       C  0.32348121  0.86729162  0.18732519    -0.02800
C3867       C  0.30108030  0.85278848  0.17737344     0.07100
C3868       C  0.27554311  0.85660688  0.19008801    -0.03000
Br3869     Br  0.24670241  0.83025222  0.18744958    -0.01600
Br3870     Br  0.23713217  0.88543926  0.22448846    -0.01600
Br3871     Br  0.35876748  0.85429114  0.17947584    -0.01600
Br3872     Br  0.35203135  0.90452760  0.22286567    -0.01600
C3873       C  0.21510616  0.84564585  0.13021889    -0.02700
C3874       C  0.22089479  0.82154965  0.11569989     0.07000
C3875       C  0.19958307  0.80450832  0.10832367    -0.02800
C3876       C  0.17557098  0.80562898  0.12318454    -0.02800
C3877       C  0.17346315  0.82478552  0.14433485     0.07100
C3878       C  0.19174244  0.84637378  0.14613783    -0.03000
Br3879     Br  0.18551549  0.87543846  0.17162985    -0.01600
Br3880     Br  0.23820970  0.87731018  0.12879888    -0.01600
Br3881     Br  0.14724322  0.77964215  0.11618672    -0.01600
Br3882     Br  0.20219639  0.78402823  0.07527953    -0.01600
C3883       C  0.48346021  0.00340815  0.26589589    -0.02700
C3884       C  0.46462468  0.02517529  0.26684741     0.07000
C3885       C  0.44353161  0.02451427  0.24745229    -0.02800
C3886       C  0.44070114  0.00263428  0.22857197    -0.02800
C3887       C  0.45979425  0.98094016  0.22742775     0.07100
C3888       C  0.48087512  0.98148886  0.24698668    -0.03000
Br3889     Br  0.50645925  0.95203336  0.24836387    -0.01600
Br3890     Br  0.51341597  0.00319119  0.29042599    -0.01600
Br3891     Br  0.40900222  0.00174867  0.20556432    -0.01600
Br3892     Br  0.42015083  0.05551153  0.24498201    -0.01600
C3893       C  0.49983846  0.84468074  0.09046819    -0.02700
C3894       C  0.51689833  0.86057441  0.10734312     0.07000
C3895       C  0.54480888  0.86070545  0.10160238    -0.02800
C3896       C  0.55512653  0.84703375  0.07865942    -0.02800
C3897       C  0.53736066  0.83544176  0.05939411     0.07100
C3898       C  0.51003924  0.83205947  0.06678461    -0.03000
Br3899     Br  0.48633926  0.81147632  0.04328050    -0.01600
Br3900     Br  0.46173364  0.84337660  0.09703931    -0.01600
Br3901     Br  0.59342841  0.84751327  0.07240453    -0.01600
Br3902     Br  0.56827466  0.88512905  0.12062324    -0.01600
C3903       C  0.58655012  0.94358520  0.16569575    -0.02700
C3904       C  0.56191878  0.95688709  0.16985780     0.07000
C3905       C  0.56197478  0.98535208  0.16972408    -0.02800
C3906       C  0.58504265  0.99961920  0.16051294    -0.02800
C3907       C  0.60679255  0.98560129  0.14810161     0.07100
C3908       C  0.60826255  0.95717659  0.15262446    -0.03000
Br3909     Br  0.63728608  0.93577729  0.13826138    -0.01600
Br3910     Br  0.59044052  0.90800780  0.18108172    -0.01600
Br3911     Br  0.58649729  0.03827030  0.16444596    -0.01600
Br3912     Br  0.52987023  0.00453203  0.18052415    -0.01600
C3913       C  0.48548431  0.01963156  0.08093475    -0.02700
C3914       C  0.47967839  0.01886763  0.10905835     0.07000
C3915       C  0.47095423  0.04208367  0.12272130    -0.02800
C3916       C  0.46805891  0.06638128  0.10825189    -0.02800
C3917       C  0.47164387  0.06684961  0.07957721     0.07100
C3918       C  0.48038081  0.04327505  0.06593972    -0.03000
Br3919     Br  0.48573276  0.04269672  0.02688363    -0.01600
Br3920     Br  0.49954917  0.98808109  0.06249371    -0.01600
Br3921     Br  0.45853645  0.09835756  0.12834380    -0.01600
Br3922     Br  0.46252149  0.04030793  0.16121088    -0.01600
C3923       C  0.41603462  0.84716502  0.14425401    -0.02700
C3924       C  0.41159116  0.87560473  0.14630671     0.07000
C3925       C  0.38913789  0.88605075  0.13149568    -0.02800
C3926       C  0.37461382  0.86991233  0.11218334    -0.02800
C3927       C  0.37922188  0.84133873  0.10953293     0.07100
C3928       C  0.40015343  0.83036734  0.12648351    -0.03000
Br3929     Br  0.40822796  0.79204508  0.12605444    -0.01600
Br3930     Br  0.44229324  0.83012245  0.16809949    -0.01600
Br3931     Br  0.34815719  0.88850410  0.08985025    -0.01600
Br3932     Br  0.37369185  0.92050016  0.14190964    -0.01600
C3933       C  0.00185055  0.73707680  0.22816217    -0.02700
C3934       C  0.98416237  0.73395977  0.20560609     0.07000
C3935       C  0.98789046  0.75231258  0.18322661    -0.02800
C3936       C  0.00780485  0.77336506  0.18401230    -0.02800
C3937       C  0.02477611  0.77693693  0.20690461     0.07100
C3938       C  0.02149964  0.75836719  0.22885785    -0.03000
Br3939     Br  0.04389076  0.76213457  0.26048217    -0.01600
Br3940     Br  0.99956373  0.71214804  0.25851831    -0.01600
Br3941     Br  0.01231853  0.79770953  0.15341902    -0.01600
Br3942     Br  0.96743819  0.74754237  0.14998336    -0.01600
C3943       C  0.84712307  0.77894307  0.24486110    -0.02700
C3944       C  0.87327443  0.77663780  0.23391886     0.07000
C3945       C  0.88615119  0.79898989  0.22177468    -0.02800
C3946       C  0.87270470  0.82394592  0.22034824    -0.02800
C3947       C  0.84509548  0.82543400  0.22809811     0.07100
C3948       C  0.83219105  0.80235009  0.23968623    -0.03000
Br3949     Br  0.79332170  0.80004018  0.24469668    -0.01600
Br3950     Br  0.83060836  0.74938864  0.26526276    -0.01600
Br3951     Br  0.89276001  0.85531377  0.20771563    -0.01600
Br3952     Br  0.92209233  0.79505019  0.20688542    -0.01600
C3953       C  0.75580065  0.55397943  0.03631255    -0.02700
C3954       C  0.77642723  0.53440371  0.03348305     0.07000
C3955       C  0.77508769  0.51781680  0.00972373    -0.02800
C3956       C  0.75311136  0.51941885  0.99064258    -0.02800
C3957       C  0.73226724  0.53897663  0.99349165     0.07100
C3958       C  0.73458811  0.55678466  0.01649659    -0.03000
Br3959     Br  0.71052639  0.58742410  0.02003434    -0.01600
Br3960     Br  0.75771117  0.57818197  0.06705357    -0.01600
Br3961     Br  0.75165414  0.49406801  0.96073381    -0.01600
Br3962     Br  0.80421420  0.49306756  0.00251451    -0.01600
C3963       C  0.88661157  0.53168307  0.93510326    -0.02700
C3964       C  0.91387277  0.52378642  0.93295916     0.07000
C3965       C  0.92668105  0.51054022  0.95495994    -0.02800
C3966       C  0.91297170  0.50755034  0.97968668    -0.02800
C3967       C  0.88707101  0.51913730  0.98267392     0.07100
C3968       C  0.87367126  0.53072724  0.96039243    -0.03000
Br3969     Br  0.83789362  0.54571148  0.96481022    -0.01600
Br3970     Br  0.86643385  0.54303131  0.90390049    -0.01600
Br3971     Br  0.93072785  0.48886113  0.00954215    -0.01600
Br3972     Br  0.96242414  0.49507450  0.95102964    -0.01600
C3973       C  0.87579637  0.58335339  0.15710550    -0.02700
C3974       C  0.86435499  0.59071726  0.13135343     0.07000
C3975       C  0.86970929  0.61779966  0.12239413    -0.02800
C3976       C  0.88745285  0.63566123  0.13704882    -0.02800
C3977       C  0.89989988  0.62788941  0.16225651     0.07100
C3978       C  0.89426150  0.60082120  0.17141396    -0.03000
Br3979     Br  0.91086641  0.58676818  0.20449627    -0.01600
Br3980     Br  0.86336298  0.55080855  0.17573756    -0.01600
Br3981     Br  0.89453569  0.67098451  0.12111970    -0.01600
Br3982     Br  0.85039018  0.63244936  0.09136084    -0.01600
C3983       C  0.94781078  0.44822433  0.14591260    -0.02700
C3984       C  0.96379089  0.46420190  0.16343190     0.07000
C3985       C  0.95477257  0.49095110  0.16849573    -0.02800
C3986       C  0.93257427  0.50205463  0.15391854    -0.02800
C3987       C  0.91747228  0.48595530  0.13557052     0.07100
C3988       C  0.92816935  0.46029482  0.12920671    -0.03000
Br3989     Br  0.92802433  0.44836152  0.09175955    -0.01600
Br3990     Br  0.95247950  0.40993181  0.14321886    -0.01600
Br3991     Br  0.92921987  0.54079854  0.15209493    -0.01600
Br3992     Br  0.97247977  0.51227718  0.19593410    -0.01600
C3993       C  0.19897613  0.49724404  0.22669544    -0.02700
C3994       C  0.20891032  0.52279068  0.23480337     0.07000
C3995       C  0.21647308  0.52528961  0.26288261    -0.02800
C3996       C  0.21488894  0.50303348  0.28177893    -0.02800
C3997       C  0.20559016  0.47711258  0.27358995     0.07100
C3998       C  0.19707269  0.47495353  0.24547408    -0.03000
Br3999     Br  0.18171718  0.44194229  0.23099932    -0.01600
Br4000     Br  0.18594086  0.49334999  0.18980431    -0.01600
Br4001     Br  0.22334881  0.50907592  0.31975507    -0.01600
Br4002     Br  0.22943467  0.55949303  0.27630328    -0.01600
C4003       C  0.29070847  0.67729453  0.09225007    -0.02700
C4004       C  0.27606019  0.70156429  0.09589305     0.07000
C4005       C  0.24950834  0.69945575  0.10631325    -0.02800
C4006       C  0.23999158  0.67498678  0.11738006    -0.02800
C4007       C  0.25750594  0.65270367  0.12045135     0.07100
C4008       C  0.28151321  0.65284072  0.10484670    -0.03000
Br4009     Br  0.30099752  0.61989933  0.10009795    -0.01600
Br4010     Br  0.32346788  0.67792685  0.07118444    -0.01600
Br4011     Br  0.20332862  0.67293464  0.13056634    -0.01600
Br4012     Br  0.22699725  0.73087665  0.10954667    -0.01600
C4013       C  0.33546658  0.59604930  0.19404228    -0.02700
C4014       C  0.31424380  0.58464066  0.20928716     0.07000
C4015       C  0.31804961  0.58211034  0.23753110    -0.02800
C4016       C  0.33813044  0.59762095  0.25092881    -0.02800
C4017       C  0.35628182  0.61403024  0.23575809     0.07100
C4018       C  0.35617204  0.61113905  0.20698126    -0.03000
Br4019     Br  0.38180193  0.63010283  0.18459705    -0.01600
Br4020     Br  0.33452790  0.59185892  0.15516471    -0.01600
Br4021     Br  0.34004148  0.59673972  0.28995683    -0.01600
Br4022     Br  0.29608404  0.55660241  0.25713058    -0.01600
C4023       C  0.18433450  0.65527788  0.30934171    -0.02700
C4024       C  0.20157977  0.67692503  0.31592315     0.07000
C4025       C  0.22713384  0.67899736  0.30279381    -0.02800
C4026       C  0.23640636  0.65782143  0.28626194    -0.02800
C4027       C  0.21911560  0.63579241  0.28034153     0.07100
C4028       C  0.19377436  0.63374473  0.29354156    -0.03000
Br4029     Br  0.17047953  0.60257929  0.28740920    -0.01600
Br4030     Br  0.14604705  0.65961158  0.31335709    -0.01600
Br4031     Br  0.27242932  0.66042519  0.27083263    -0.01600
Br4032     Br  0.24827884  0.71222332  0.30297680    -0.01600
C4033       C  0.13453602  0.70972273  0.20480756    -0.02700
C4034       C  0.14729228  0.73375702  0.19603540     0.07000
C4035       C  0.17525893  0.73371438  0.18999653    -0.02800
C4036       C  0.19003640  0.70965038  0.19136075    -0.02800
C4037       C  0.17688049  0.68542018  0.19888490     0.07100
C4038       C  0.14966879  0.68582576  0.20737838    -0.03000
Br4039     Br  0.13497805  0.65557286  0.22775999    -0.01600
Br4040     Br  0.09674091  0.70969588  0.21440812    -0.01600
Br4041     Br  0.22878041  0.71081793  0.18488355    -0.01600
Br4042     Br  0.19471257  0.76651975  0.18171163    -0.01600
C4043       C  0.02839503  0.74864472  0.06624185    -0.02700
C4044       C  0.02282048  0.72540911  0.05057523     0.07000
C4045       C  0.99839689  0.72539804  0.03531380    -0.02800
C4046       C  0.97989864  0.74781844  0.03598061    -0.02800
C4047       C  0.98565070  0.77177529  0.05130164     0.07100
C4048       C  0.01140683  0.77201290  0.06520705    -0.03000
Br4049     Br  0.02658296  0.80456460  0.08120709    -0.01600
Br4050     Br  0.05880986  0.74754712  0.09104038    -0.01600
Br4051     Br  0.94725091  0.74532621  0.01455302    -0.01600
Br4052     Br  0.99042965  0.69431757  0.01291056    -0.01600
C4053       C  0.02658756  0.62515409  0.91719802    -0.02700
C4054       C  0.00699472  0.60441933  0.92090192     0.07000
C4055       C  0.99387786  0.60268787  0.94642387    -0.02800
C4056       C  0.00400420  0.61705501  0.96899706    -0.02800
C4057       C  0.02690321  0.63386753  0.96639208     0.07100
C4058       C  0.03570123  0.64056138  0.93987523    -0.03000
Br4059     Br  0.05710990  0.67274129  0.93471426    -0.01600
Br4060     Br  0.04145223  0.63197355  0.88153476    -0.01600
Br4061     Br  0.98510407  0.61559383  0.00316516    -0.01600
Br4062     Br  0.96078986  0.58257123  0.95050696    -0.01600
C4063       C  0.06003131  0.55854734  0.16149585    -0.02700
C4064       C  0.07948759  0.53800760  0.16006712     0.07000
C4065       C  0.10288424  0.54241404  0.14445293    -0.02800
C4066       C  0.10300042  0.56272993  0.12438500    -0.02800
C4067       C  0.08198910  0.58184629  0.12351342     0.07100
C4068       C  0.06203691  0.58132024  0.14421117    -0.03000
Br4069     Br  0.03560581  0.60980235  0.14716642    -0.01600
Br4070     Br  0.02941288  0.55372647  0.18509545    -0.01600
Br4071     Br  0.13045084  0.56220248  0.09698128    -0.01600
Br4072     Br  0.13329563  0.51856001  0.14830361    -0.01600
C4073       C  0.94004460  0.60271120  0.06500288    -0.02700
C4074       C  0.93926668  0.57399494  0.06618607     0.07000
C4075       C  0.96269894  0.55932983  0.07357174    -0.02800
C4076       C  0.98648817  0.57343587  0.07920396    -0.02800
C4077       C  0.98770189  0.60156199  0.07557825     0.07100
C4078       C  0.96418435  0.61649282  0.07071011    -0.03000
Br4079     Br  0.96535580  0.65556588  0.07121866    -0.01600
Br4080     Br  0.90978891  0.62329490  0.05132399    -0.01600
Br4081     Br  0.01755465  0.55462581  0.09299203    -0.01600
Br4082     Br  0.96385053  0.52010179  0.07485494    -0.01600
C4083       C  0.12728031  0.64758943  0.12421529    -0.02700
C4084       C  0.13353524  0.65259182  0.09639248     0.07000
C4085       C  0.15767751  0.64044753  0.08653369    -0.02800
C4086       C  0.17303976  0.62184954  0.10297359    -0.02800
C4087       C  0.16405243  0.61339360  0.12953389     0.07100
C4088       C  0.14007478  0.62633100  0.13921668    -0.03000
Br4089     Br  0.12224919  0.61440287  0.17215072    -0.01600
Br4090     Br  0.10294595  0.67164391  0.14329747    -0.01600
Br4091     Br  0.20740974  0.60981486  0.08866890    -0.01600
Br4092     Br  0.17227025  0.65228108  0.05178431    -0.01600
C4093       C  0.57066753  0.47826848  0.25951157    -0.02700
C4094       C  0.54826844  0.47161581  0.27587990     0.07000
C4095       C  0.52426380  0.48653584  0.27143200    -0.02800
C4096       C  0.52382494  0.50929852  0.25306291    -0.02800
C4097       C  0.54804013  0.51876759  0.23985015     0.07100
C4098       C  0.57153278  0.50240235  0.24364931    -0.03000
Br4099     Br  0.60622052  0.51269204  0.22890147    -0.01600
Br4100     Br  0.59963503  0.45227616  0.25784479    -0.01600
Br4101     Br  0.48950762  0.52706426  0.24715876    -0.01600
Br4102     Br  0.49188296  0.47579781  0.29055975    -0.01600
C4103       C  0.45264974  0.52106683  0.12857008    -0.02700
C4104       C  0.45118139  0.53185145  0.15533349     0.07000
C4105       C  0.42530072  0.53309265  0.16776652    -0.02800
C4106       C  0.40249049  0.52128485  0.15423510    -0.02800
C4107       C  0.40478708  0.51294898  0.12669015     0.07100
C4108       C  0.42949801  0.51716934  0.11333331    -0.03000
Br4109     Br  0.43357890  0.51439732  0.07417345    -0.01600
Br4110     Br  0.48370472  0.50299538  0.11351502    -0.01600
Br4111     Br  0.36933346  0.51471501  0.17362976    -0.01600
Br4112     Br  0.42166529  0.54756656  0.20393756    -0.01600
C4113       C  0.51669060  0.61334949  0.08106813    -0.02700
C4114       C  0.49804799  0.60759898  0.10180361     0.07000
C4115       C  0.47213173  0.61933705  0.10075337    -0.02800
C4116       C  0.46394027  0.63432949  0.07740262    -0.02800
C4117       C  0.48096514  0.63570456  0.05425380     0.07100
C4118       C  0.50828773  0.62734324  0.05754595    -0.03000
Br4119     Br  0.53455816  0.63355195  0.02940867    -0.01600
Br4120     Br  0.55339814  0.60010715  0.08401945    -0.01600
Br4121     Br  0.43025635  0.65355265  0.07776605    -0.01600
Br4122     Br  0.44786772  0.61372493  0.13095841    -0.01600
C4123       C  0.61124115  0.52438321  0.07899268    -0.02700
C4124       C  0.58274975  0.52280012  0.08094029     0.07000
C4125       C  0.56744573  0.51971399  0.05669925    -0.02800
C4126       C  0.58003181  0.52207238  0.03116144    -0.02800
C4127       C  0.60797401  0.52738730  0.02951363     0.07100
C4128       C  0.62348907  0.52901393  0.05351967    -0.03000
Br4129     Br  0.66117831  0.53892497  0.05202581    -0.01600
Br4130     Br  0.63419105  0.51673177  0.10984833    -0.01600
Br4131     Br  0.55827315  0.52045269  0.99840133    -0.01600
Br4132     Br  0.52967092  0.50955379  0.05775829    -0.01600
C4133       C  0.58047254  0.44905088  0.15701876    -0.02700
C4134       C  0.55424519  0.45631896  0.16516891     0.07000
C4135       C  0.53240983  0.44124383  0.15530919    -0.02800
C4136       C  0.53503389  0.42915150  0.12973702    -0.02800
C4137       C  0.56098376  0.42269968  0.11997059     0.07100
C4138       C  0.58379998  0.43222605  0.13421689    -0.03000
Br4139     Br  0.61880229  0.42862941  0.11855478    -0.01600
Br4140     Br  0.61142915  0.46592788  0.17377224    -0.01600
Br4141     Br  0.50468533  0.43072649  0.10534891    -0.01600
Br4142     Br  0.49771548  0.44519263  0.17249277    -0.01600
C4143       C  0.76198625  0.68457128  0.03500103    -0.02700
C4144       C  0.73947398  0.70294077  0.03692597     0.07000
C4145       C  0.73844900  0.72350156  0.01629729    -0.02800
C4146       C  0.75858924  0.72541619  0.99507919    -0.02800
C4147       C  0.78107825  0.70743948  0.99378666     0.07100
C4148       C  0.78233499  0.68718898  0.01435890    -0.03000
Br4149     Br  0.81294813  0.66274012  0.01478575    -0.01600
Br4150     Br  0.76553912  0.65371872  0.05936984    -0.01600
Br4151     Br  0.75402690  0.75182844  0.96641377    -0.01600
Br4152     Br  0.70942071  0.74952634  0.01647941    -0.01600
C4153       C  0.70357455  0.80010816  0.16036591    -0.02700
C4154       C  0.71332219  0.78816228  0.13605858     0.07000
C4155       C  0.73602685  0.80013775  0.12328025    -0.02800
C4156       C  0.74916231  0.82263633  0.13567891    -0.02800
C4157       C  0.74225951  0.83056411  0.16260732     0.07100
C4158       C  0.71943529  0.81867675  0.17491164    -0.03000
Br4159     Br  0.70965882  0.82706984  0.21203143    -0.01600
Br4160     Br  0.66738889  0.79279303  0.17306771    -0.01600
Br4161     Br  0.77625243  0.84227008  0.11556360    -0.01600
Br4162     Br  0.74972705  0.78562115  0.08957753    -0.01600
C4163       C  0.60374863  0.73634230  0.18567271    -0.02700
C4164       C  0.61464039  0.74613159  0.16072318     0.07000
C4165       C  0.60574571  0.77226016  0.15211054    -0.02800
C4166       C  0.59414975  0.79028733  0.17137670    -0.02800
C4167       C  0.58965728  0.78186940  0.19848180     0.07100
C4168       C  0.59067955  0.75397808  0.20399692    -0.03000
Br4169     Br  0.57463536  0.74022814  0.23709424    -0.01600
Br4170     Br  0.60520807  0.69887854  0.19501853    -0.01600
Br4171     Br  0.58235367  0.82585402  0.16086712    -0.01600
Br4172     Br  0.60818686  0.78345889  0.11442055    -0.01600
C4173       C  0.79994695  0.67901361  0.19610675    -0.02700
C4174       C  0.82057452  0.69369312  0.18284091     0.07000
C4175       C  0.81624482  0.70451436  0.15647693    -0.02800
C4176       C  0.79082859  0.70136329  0.14410650    -0.02800
C4177       C  0.77106561  0.68513986  0.15686145     0.07100
C4178       C  0.77657963  0.67228215  0.18177951    -0.03000
Br4179     Br  0.75341085  0.64400360  0.19546581    -0.01600
Br4180     Br  0.80187398  0.66999765  0.23439588    -0.01600
Br4181     Br  0.78275945  0.71949890  0.11013408    -0.01600
Br4182     Br  0.84381880  0.72599843  0.13860576    -0.01600
C4183       C  0.63384351  0.62332478  0.11101618    -0.02700
C4184       C  0.62641230  0.65068689  0.10639710     0.07000
C4185       C  0.60221972  0.65951069  0.11982901    -0.02800
C4186       C  0.58760142  0.64209353  0.13834255    -0.02800
C4187       C  0.59744860  0.61593897  0.14532358     0.07100
C4188       C  0.62188094  0.60780533  0.13223061    -0.03000
Br4189     Br  0.64151128  0.57616004  0.14472518    -0.01600
Br4190     Br  0.65949012  0.60547589  0.08740421    -0.01600
Br4191     Br  0.55382831  0.65418341  0.15361182    -0.01600
Br4192     Br  0.58676953  0.69438110  0.11105638    -0.01600
C4193       C  0.81931455  0.01925264  0.25328687    -0.02700
C4194       C  0.79471926  0.02501641  0.26677369     0.07000
C4195       C  0.77113381  0.01189072  0.25687029    -0.02800
C4196       C  0.77219020  0.99472174  0.23339686    -0.02800
C4197       C  0.79730163  0.98652383  0.22202707     0.07100
C4198       C  0.82081728  0.99973140  0.23210074    -0.03000
Br4199     Br  0.85564029  0.99176945  0.21621324    -0.01600
Br4200     Br  0.85169103  0.03756670  0.26483625    -0.01600
Br4201     Br  0.73904542  0.98546305  0.21510718    -0.01600
Br4202     Br  0.73742123  0.01624312  0.27595912    -0.01600
C4203       C  0.65441336  0.11210588  0.27784297    -0.02700
C4204       C  0.66152643  0.12366953  0.25237810     0.07000
C4205       C  0.68434377  0.11362597  0.23852621    -0.02800
C4206       C  0.70203081  0.09572039  0.25215115    -0.02800
C4207       C  0.69777712  0.08879931  0.27973797     0.07100
C4208       C  0.67207667  0.09365178  0.29072608    -0.03000
Br4209     Br  0.66126012  0.07386027  0.32273131    -0.01600
Br4210     Br  0.62238084  0.12369388  0.29674339    -0.01600
Br4211     Br  0.73232659  0.08054728  0.23358721    -0.01600
Br4212     Br  0.69155560  0.12468806  0.20132404    -0.01600
C4213       C  0.75130822  0.15561551  0.40485612    -0.02700
C4214       C  0.73414521  0.14144361  0.38679138     0.07000
C4215       C  0.70606322  0.14625260  0.38819581    -0.02800
C4216       C  0.69577335  0.16630503  0.40596878    -0.02800
C4217       C  0.71353468  0.18321966  0.42068824     0.07100
C4218       C  0.74067815  0.17492568  0.42293638    -0.03000
Br4219     Br  0.76381716  0.19193192  0.44936231    -0.01600
Br4220     Br  0.78990134  0.15294440  0.40144784    -0.01600
Br4221     Br  0.65760488  0.17105984  0.40957144    -0.01600
Br4222     Br  0.68238445  0.12997944  0.36177650    -0.01600
C4223       C  0.87426206  0.20422916  0.32740643    -0.02700
C4224       C  0.85895415  0.22798868  0.32658710     0.07000
C4225       C  0.83102832  0.22708013  0.33143150    -0.02800
C4226       C  0.81843313  0.20209757  0.33522053    -0.02800
C4227       C  0.83283262  0.17828077  0.32879382     0.07100
C4228       C  0.86098980  0.17955417  0.32432798    -0.03000
Br4229     Br  0.88063285  0.15122549  0.30634312    -0.01600
Br4230     Br  0.91254638  0.20492916  0.33409164    -0.01600
Br4231     Br  0.78116612  0.20131972  0.34715441    -0.01600
Br4232     Br  0.80978078  0.25963381  0.33285474    -0.01600
C4233       C  0.79251054  0.13200067  0.20720028    -0.02700
C4234       C  0.79362149  0.14639587  0.23176120     0.07000
C4235       C  0.79806406  0.17468528  0.23165576    -0.02800
C4236       C  0.80258853  0.18817301  0.20698866    -0.02800
C4237       C  0.79926005  0.17399439  0.18229477     0.07100
C4238       C  0.79232314  0.14627132  0.18256410    -0.03000
Br4239     Br  0.77766929  0.12889360  0.15065293    -0.01600
Br4240     Br  0.79402572  0.09299280  0.20694327    -0.01600
Br4241     Br  0.81382709  0.22584203  0.20773746    -0.01600
Br4242     Br  0.79811453  0.19567060  0.26470468    -0.01600
C4243       C  0.02340507  0.24783225  0.43292520    -0.02700
C4244       C  0.02848012  0.26287918  0.45720515     0.07000
C4245       C  0.01009104  0.25822768  0.47931307    -0.02800
C4246       C  0.98741993  0.24015005  0.47688851    -0.02800
C4247       C  0.98306670  0.22450127  0.45307270     0.07100
C4248       C  0.00107503  0.22938253  0.43082956    -0.03000
Br4249     Br  0.99455625  0.21161388  0.39624765    -0.01600
Br4250     Br  0.04853808  0.25003602  0.40274438    -0.01600
Br4251     Br  0.96217501  0.23685976  0.50672693    -0.01600
Br4252     Br  0.01595186  0.27532277  0.51417830    -0.01600
C4253       C  0.86055484  0.10439578  0.53746788    -0.02700
C4254       C  0.87051279  0.09712857  0.51151808     0.07000
C4255       C  0.86181561  0.07208910  0.50058558    -0.02800
C4256       C  0.84827422  0.05311008  0.51718711    -0.02800
C4257       C  0.84660344  0.05743131  0.54540006     0.07100
C4258       C  0.85074102  0.08394336  0.55517494    -0.03000
Br4259     Br  0.84329419  0.09209050  0.59253474    -0.01600
Br4260     Br  0.85865581  0.14184947  0.54812867    -0.01600
Br4261     Br  0.83291929  0.02081528  0.50169485    -0.01600
Br4262     Br  0.86813685  0.06330656  0.46319907    -0.01600
C4263       C  0.96787720  0.14463064  0.60710955    -0.02700
C4264       C  0.99528392  0.13881950  0.60252161     0.07000
C4265       C  0.00675439  0.15014992  0.57861883    -0.02800
C4266       C  0.99053627  0.16129934  0.55768509    -0.02800
C4267       C  0.96230835  0.15879178  0.55913027     0.07100
C4268       C  0.95098490  0.15209224  0.58491034    -0.03000
Br4269     Br  0.91272008  0.15275712  0.59029127    -0.01600
Br4270     Br  0.95509050  0.14729090  0.64389183    -0.01600
Br4271     Br  0.00693571  0.17876631  0.52644395    -0.01600
Br4272     Br  0.04461740  0.15266590  0.57528010    -0.01600
C4273       C  0.06138498  0.08104840  0.48998188    -0.02700
C4274       C  0.07935706  0.08995623  0.46956125     0.07000
C4275       C  0.07551373  0.11532888  0.45689383    -0.02800
C4276       C  0.05114747  0.12927980  0.46088969    -0.02800
C4277       C  0.03118949  0.11821291  0.47828815     0.07100
C4278       C  0.03741751  0.09535194  0.49476784    -0.03000
Br4279     Br  0.01184247  0.08043575  0.52084502    -0.01600
Br4280     Br  0.06910778  0.04874229  0.51090161    -0.01600
Br4281     Br  0.04497272  0.16318080  0.44212115    -0.01600
Br4282     Br  0.10305019  0.13049080  0.43338221    -0.01600
C4283       C  0.85401493  0.12339341  0.41843577    -0.02700
C4284       C  0.87929308  0.13341144  0.40790055     0.07000
C4285       C  0.88636843  0.12343218  0.38135979    -0.02800
C4286       C  0.86877356  0.10567319  0.36613281    -0.02800
C4287       C  0.84278079  0.09759250  0.37598388     0.07100
C4288       C  0.83700714  0.10505380  0.40331117    -0.03000
Br4289     Br  0.80725946  0.08710169  0.42173171    -0.01600
Br4290     Br  0.84122702  0.13421440  0.45402117    -0.01600
Br4291     Br  0.88284203  0.08875889  0.33352967    -0.01600
Br4292     Br  0.92142456  0.13159696  0.36567782    -0.01600
C4293       C  0.69559472  0.48232586  0.25027769    -0.02700
C4294       C  0.72029827  0.47419896  0.23854287     0.07000
C4295       C  0.74385898  0.48733150  0.24797647    -0.02800
C4296       C  0.74299530  0.50652837  0.26990072    -0.02800
C4297       C  0.71807219  0.51385726  0.28311717     0.07100
C4298       C  0.69430891  0.50097262  0.27259280    -0.03000
Br4299     Br  0.65950836  0.50684556  0.28930441    -0.01600
Br4300     Br  0.66320906  0.46936757  0.23305277    -0.01600
Br4301     Br  0.77715281  0.52174635  0.28115104    -0.01600
Br4302     Br  0.77748693  0.47962590  0.22971380    -0.01600
C4303       C  0.84183000  0.60641545  0.24213875    -0.02700
C4304       C  0.86174693  0.61508614  0.26085972     0.07000
C4305       C  0.86028375  0.60511409  0.28787087    -0.02800
C4306       C  0.83612875  0.59255706  0.29746899    -0.02800
C4307       C  0.81412682  0.58841608  0.27927416     0.07100
C4308       C  0.81951399  0.59114419  0.25105270    -0.03000
Br4309     Br  0.79588667  0.57524386  0.22416862    -0.01600
Br4310     Br  0.84210182  0.61915414  0.20487750    -0.01600
Br4311     Br  0.83299307  0.58359991  0.33569712    -0.01600
Br4312     Br  0.88991450  0.61130112  0.31227864    -0.01600
C4313       C  0.66666877  0.59443990  0.21355633    -0.02700
C4314       C  0.69176655  0.58144865  0.21443446     0.07000
C4315       C  0.70797699  0.58214715  0.19112651    -0.02800
C4316       C  0.70318972  0.60190372  0.17092686    -0.02800
C4317       C  0.68262594  0.62143034  0.17522269     0.07100
C4318       C  0.66335851  0.61652144  0.19582104    -0.03000
Br4319     Br  0.63284604  0.63934059  0.20038080    -0.01600
Br4320     Br  0.63883857  0.58421847  0.23923907    -0.01600
Br4321     Br  0.72626463  0.60316096  0.13924232    -0.01600
Br4322     Br  0.73688605  0.55649227  0.18833011    -0.01600
C4323       C  0.67969684  0.68827846  0.25373148    -0.02700
C4324       C  0.66818180  0.66693276  0.26911270     0.07000
C4325       C  0.64218665  0.67012873  0.28060732    -0.02800
C4326       C  0.63039874  0.69604894  0.28110896    -0.02800
C4327       C  0.64299551  0.71790057  0.26731936     0.07100
C4328       C  0.66671384  0.71342004  0.25202506    -0.03000
Br4329     Br  0.68381147  0.74235603  0.23138034    -0.01600
Br4330     Br  0.71415386  0.68387728  0.23598595    -0.01600
Br4331     Br  0.59810200  0.70188231  0.30246626    -0.01600
Br4332     Br  0.62362676  0.64011549  0.29806523    -0.01600
C4333       C  0.50059675  0.72132975  0.46856288    -0.02700
C4334       C  0.52888065  0.72523059  0.46517010     0.07000
C4335       C  0.53778473  0.75254605  0.46447212    -0.02800
C4336       C  0.51886492  0.77461356  0.46466739    -0.02800
C4337       C  0.49042784  0.77034739  0.46184678     0.07100
C4338       C  0.48161193  0.74303211  0.46469535    -0.03000
Br4339     Br  0.44362143  0.73491862  0.46247750    -0.01600
Br4340     Br  0.48854415  0.68752984  0.48399557    -0.01600
Br4341     Br  0.53152207  0.81033411  0.47396741    -0.01600
Br4342     Br  0.57604769  0.75961727  0.46594697    -0.01600
C4343       C  0.45644166  0.63976430  0.44446912    -0.02700
C4344       C  0.47897608  0.62218240  0.44651866     0.07000
C4345       C  0.47666108  0.59839815  0.46308569    -0.02800
C4346       C  0.45397010  0.59484497  0.47931882    -0.02800
C4347       C  0.43007784  0.60769691  0.47167469     0.07100
C4348       C  0.43160660  0.63193627  0.45653940    -0.03000
Br4349     Br  0.40024832  0.65454284  0.45398023    -0.01600
Br4350     Br  0.45816811  0.67223057  0.42247026    -0.01600
Br4351     Br  0.45386567  0.56903438  0.50912780    -0.01600
Br4352     Br  0.50026066  0.56703003  0.46068129    -0.01600
C4353       C  0.60370806  0.56630970  0.38556432    -0.02700
C4354       C  0.57902235  0.58035443  0.38195741     0.07000
C4355       C  0.56090792  0.57139740  0.36152748    -0.02800
C4356       C  0.56523360  0.54593709  0.34942544    -0.02800
C4357       C  0.58652257  0.52953323  0.35863642     0.07100
C4358       C  0.60796924  0.54151360  0.37259319    -0.03000
Br4359     Br  0.64172997  0.52263016  0.37645362    -0.01600
Br4360     Br  0.62990711  0.57772599  0.41176099    -0.01600
Br4361     Br  0.54171166  0.53215753  0.32146455    -0.01600
Br4362     Br  0.52805141  0.59073234  0.35338321    -0.01600
C4363       C  0.67727909  0.61834609  0.40310210    -0.02700
C4364       C  0.67571809  0.62241204  0.37446291     0.07000
C4365       C  0.66400510  0.64757789  0.36655079    -0.02800
C4366       C  0.64581459  0.66167564  0.38379942    -0.02800
C4367       C  0.64164656  0.65334471  0.41096743     0.07100
C4368       C  0.66081107  0.63426042  0.42130416    -0.03000
Br4369     Br  0.66646914  0.63139802  0.45985481    -0.01600
Br4370     Br  0.70193520  0.59167110  0.41747441    -0.01600
Br4371     Br  0.62942711  0.69506711  0.37181515    -0.01600
Br4372     Br  0.68035620  0.66764821  0.33735715    -0.01600
C4373       C  0.50050606  0.26411870  0.72548079    -0.02700
C4374       C  0.52182756  0.26015996  0.70629413     0.07000
C4375       C  0.52018517  0.23572271  0.69012260    -0.02800
C4376       C  0.49772900  0.21766996  0.69216112    -0.02800
C4377       C  0.47577915  0.22331553  0.70924465     0.07100
C4378       C  0.47784238  0.24602440  0.72671698    -0.03000
Br4379     Br  0.45075459  0.25045906  0.75457902    -0.01600
Br4380     Br  0.50230432  0.29322420  0.75166356    -0.01600
Br4381     Br  0.49682766  0.18388463  0.67217623    -0.01600
Br4382     Br  0.54805624  0.22492984  0.66461250    -0.01600
C4383       C  0.60297999  0.22903685  0.83396445    -0.02700
C4384       C  0.62026174  0.24243988  0.85258611     0.07000
C4385       C  0.61969951  0.27120648  0.85226519    -0.02800
C4386       C  0.60968202  0.28508203  0.82888179    -0.02800
C4387       C  0.59675247  0.27069180  0.80758974     0.07100
C4388       C  0.59036254  0.24330199  0.81231784    -0.03000
Br4389     Br  0.56414174  0.22576871  0.78934083    -0.01600
Br4390     Br  0.59542386  0.19147245  0.83884504    -0.01600
Br4391     Br  0.61510544  0.32361271  0.82506672    -0.01600
Br4392     Br  0.63286713  0.29179942  0.88302221    -0.01600
C4393       C  0.69604404  0.33176291  0.67677732    -0.02700
C4394       C  0.67942960  0.31292218  0.66327723     0.07000
C4395       C  0.68829223  0.30086224  0.63903380    -0.02800
C4396       C  0.71554946  0.30326018  0.63164522    -0.02800
C4397       C  0.73346463  0.31777346  0.64864211     0.07100
C4398       C  0.72358776  0.33280695  0.67069547    -0.03000
Br4399     Br  0.74789551  0.35230723  0.69433434    -0.01600
Br4400     Br  0.68072057  0.35879986  0.70018400    -0.01600
Br4401     Br  0.72844399  0.28507534  0.59952297    -0.01600
Br4402     Br  0.66285383  0.28262076  0.61544293    -0.01600
C4403       C  0.63099433  0.16526497  0.71656455    -0.02700
C4404       C  0.65693657  0.16151008  0.70502313     0.07000
C4405       C  0.66528680  0.17924179  0.68398835    -0.02800
C4406       C  0.65285833  0.20435269  0.68094411    -0.02800
C4407       C  0.62929145  0.21007857  0.69573712     0.07100
C4408       C  0.61687671  0.18943565  0.71115072    -0.03000
Br4409     Br  0.58083904  0.19486981  0.72489869    -0.01600
Br4410     Br  0.61413740  0.13828862  0.73924410    -0.01600
Br4411     Br  0.67120180  0.23153286  0.65986539    -0.01600
Br4412     Br  0.69241733  0.16895802  0.65785754    -0.01600
C4413       C  0.74023389  0.47265152  0.51631814    -0.02700
C4414       C  0.73702191  0.45338718  0.53767461     0.07000
C4415       C  0.75847363  0.43541818  0.54241523    -0.02800
C4416       C  0.78072573  0.43375964  0.52408207    -0.02800
C4417       C  0.78251307  0.45087365  0.50036872     0.07100
C4418       C  0.76230115  0.47110965  0.49753914    -0.03000
Br4419     Br  0.76523810  0.49790042  0.46883997    -0.01600
Br4420     Br  0.71594723  0.50297742  0.51442159    -0.01600
Br4421     Br  0.80804386  0.40697022  0.53216477    -0.01600
Br4422     Br  0.75796406  0.41508724  0.57616503    -0.01600
C4423       C  0.63007993  0.52694956  0.49348676    -0.02700
C4424       C  0.64446882  0.52907008  0.51823014     0.07000
C4425       C  0.65067009  0.55518901  0.52826323    -0.02800
C4426       C  0.63932544  0.57851870  0.51562506    -0.02800
C4427       C  0.62081205  0.57560550  0.49377036     0.07100
C4428       C  0.61660496  0.54938993  0.48263452    -0.03000
Br4429     Br  0.58931768  0.54184278  0.45524859    -0.01600
Br4430     Br  0.62648282  0.49258923  0.47510069    -0.01600
Br4431     Br  0.64578513  0.61375876  0.53110641    -0.01600
Br4432     Br  0.67246147  0.55892579  0.56060670    -0.01600
C4433       C  0.66135094  0.43470949  0.45634592    -0.02700
C4434       C  0.64956821  0.41499215  0.47329497     0.07000
C4435       C  0.63148941  0.39651809  0.46182009    -0.02800
C4436       C  0.61794629  0.40347281  0.43776959    -0.02800
C4437       C  0.62578432  0.42707215  0.42335215     0.07100
C4438       C  0.64983592  0.44036271  0.43081350    -0.03000
Br4439     Br  0.66750151  0.46481778  0.40603170    -0.01600
Br4440     Br  0.69242024  0.45413598  0.46897044    -0.01600
Br4441     Br  0.58856655  0.38095595  0.42611561    -0.01600
Br4442     Br  0.62701808  0.36150581  0.47802468    -0.01600
C4443       C  0.57179317  0.38948139  0.60003527    -0.02700
C4444       C  0.58551750  0.38045547  0.57652448     0.07000
C4445       C  0.57709056  0.35630854  0.56387546    -0.02800
C4446       C  0.55289452  0.34389229  0.57203162    -0.02800
C4447       C  0.53664766  0.35641931  0.59171703     0.07100
C4448       C  0.54726693  0.37738849  0.60763081    -0.03000
Br4449     Br  0.52652794  0.39164861  0.63748271    -0.01600
Br4450     Br  0.58515528  0.41911198  0.62122333    -0.01600
Br4451     Br  0.53976757  0.31182689  0.55392552    -0.01600
Br4452     Br  0.59775338  0.34047391  0.53518057    -0.01600
C4453       C  0.64320309  0.37467491  0.62856767    -0.02700
C4454       C  0.64897961  0.40196118  0.63622564     0.07000
C4455       C  0.63642214  0.41111410  0.66065474    -0.02800
C4456       C  0.61811050  0.39410662  0.67586240    -0.02800
C4457       C  0.60980113  0.36804412  0.66613205     0.07100
C4458       C  0.62154784  0.35982856  0.64087535    -0.03000
Br4459     Br  0.60650555  0.32989361  0.62032313    -0.01600
Br4460     Br  0.66517305  0.35626998  0.60164303    -0.01600
Br4461     Br  0.60174016  0.40880690  0.70819668    -0.01600
Br4462     Br  0.64364483  0.44753364  0.67334779    -0.01600
C4463       C  0.25359101  0.72481369  0.52205142    -0.02700
C4464       C  0.27682566  0.70791947  0.52215542     0.07000
C4465       C  0.27989056  0.69035920  0.49975196    -0.02800
C4466       C  0.26046688  0.68964766  0.47798387    -0.02800
C4467       C  0.23740938  0.70739141  0.47705949     0.07100
C4468       C  0.23449483  0.72489749  0.49995576    -0.03000
Br4469     Br  0.20442294  0.74959677  0.50171842    -0.01600
Br4470     Br  0.24795390  0.74833218  0.55278105    -0.01600
Br4471     Br  0.26519673  0.66195345  0.45096441    -0.01600
Br4472     Br  0.31076296  0.66640862  0.49967834    -0.01600
C4473       C  0.28810330  0.82115190  0.58293319    -0.02700
C4474       C  0.31059369  0.81096388  0.59727729     0.07000
C4475       C  0.32021624  0.82687696  0.61925608    -0.02800
C4476       C  0.30309423  0.84561563  0.63207406    -0.02800
C4477       C  0.27658047  0.84917842  0.62252478     0.07100
C4478       C  0.27189148  0.84169180  0.59498662    -0.03000
Br4479     Br  0.25044259  0.86473399  0.57180464    -0.01600
Br4480     Br  0.28213786  0.80987156  0.54605780    -0.01600
Br4481     Br  0.31767828  0.87008315  0.65860202    -0.01600
Br4482     Br  0.35641358  0.82210206  0.63257991    -0.01600
C4483       C  0.29991159  0.63011858  0.71581054    -0.02700
C4484       C  0.31099712  0.64379283  0.73829559     0.07000
C4485       C  0.31813889  0.67140137  0.73636728    -0.02800
C4486       C  0.31601837  0.68487271  0.71133271    -0.02800
C4487       C  0.30647859  0.67066510  0.68824597     0.07100
C4488       C  0.29695491  0.64384227  0.69090302    -0.03000
Br4489     Br  0.27550541  0.62784757  0.66223630    -0.01600
Br4490     Br  0.28659907  0.59351449  0.71989037    -0.01600
Br4491     Br  0.32522782  0.72303506  0.70965745    -0.01600
Br4492     Br  0.32931368  0.69139004  0.76839320    -0.01600
C4493       C  0.22464152  0.73819693  0.65816699    -0.02700
C4494       C  0.22849332  0.72523584  0.63279905     0.07000
C4495       C  0.20694008  0.71121199  0.62032318    -0.02800
C4496       C  0.18223183  0.70836536  0.63408124    -0.02800
C4497       C  0.17926334  0.71939494  0.66048738     0.07100
C4498       C  0.19982485  0.73580194  0.67162830    -0.03000
Br4499     Br  0.19329865  0.75718868  0.70405049    -0.01600
Br4500     Br  0.25382259  0.75712572  0.67634003    -0.01600
Br4501     Br  0.15331346  0.68816400  0.61689443    -0.01600
Br4502     Br  0.21134010  0.69515639  0.58472176    -0.01600
C4503       C  0.43909186  0.50064730  0.75214531    -0.02700
C4504       C  0.46100451  0.51152819  0.73676121     0.07000
C4505       C  0.48663992  0.49881110  0.74073947    -0.02800
C4506       C  0.48995099  0.47609421  0.75903432    -0.02800
C4507       C  0.46808598  0.46590330  0.77478863     0.07100
C4508       C  0.44257783  0.47858491  0.77069068    -0.03000
Br4509     Br  0.41142515  0.46527095  0.79056130    -0.01600
Br4510     Br  0.40346142  0.51637832  0.74834458    -0.01600
Br4511     Br  0.52445614  0.45836439  0.76208145    -0.01600
Br4512     Br  0.51758426  0.51180820  0.72093772    -0.01600
C4513       C  0.56058644  0.52132107  0.64352175    -0.02700
C4514       C  0.53469150  0.50983600  0.64038032     0.07000
C4515       C  0.53214779  0.48607261  0.62487668    -0.02800
C4516       C  0.55268147  0.47809735  0.60701059    -0.02800
C4517       C  0.57925009  0.48920391  0.60963509     0.07100
C4518       C  0.58310541  0.51014863  0.62944691    -0.03000
Br4519     Br  0.61840507  0.52489178  0.63733731    -0.01600
Br4520     Br  0.56491918  0.55258025  0.66666896    -0.01600
Br4521     Br  0.54131747  0.45439104  0.57745340    -0.01600
Br4522     Br  0.50005251  0.46405383  0.62824509    -0.01600
C4523       C  0.43615056  0.44210598  0.65937140    -0.02700
C4524       C  0.42222729  0.46066762  0.64258322     0.07000
C4525       C  0.40869380  0.45169809  0.61917597    -0.02800
C4526       C  0.40941499  0.42435754  0.61238330    -0.02800
C4527       C  0.42739884  0.40688209  0.62604815     0.07100
C4528       C  0.43925796  0.41515845  0.65069678    -0.03000
Br4529     Br  0.46173710  0.39030437  0.67081475    -0.01600
Br4530     Br  0.45442739  0.45458575  0.69166720    -0.01600
Br4531     Br  0.38694816  0.41229836  0.58306119    -0.01600
Br4532     Br  0.39515601  0.47720706  0.59244864    -0.01600
C4533       C  0.50822251  0.57692150  0.56342304    -0.02700
C4534       C  0.49846813  0.59463220  0.58373534     0.07000
C4535       C  0.50404169  0.62270042  0.58099486    -0.02800
C4536       C  0.51718912  0.63304684  0.55725099    -0.02800
C4537       C  0.52611283  0.61522962  0.53659980     0.07100
C4538       C  0.52290417  0.58696968  0.54097392    -0.03000
Br4539     Br  0.54091081  0.56092614  0.51815368    -0.01600
Br4540     Br  0.50225111  0.53815331  0.56595599    -0.01600
Br4541     Br  0.52252874  0.67154355  0.55287174    -0.01600
Br4542     Br  0.49326239  0.64702866  0.60931947    -0.01600
C4543       C  0.38461521  0.58416868  0.57913950    -0.02700
C4544       C  0.37839850  0.56123430  0.59505015     0.07000
C4545       C  0.35597331  0.54485279  0.58868024    -0.02800
C4546       C  0.34440860  0.54737026  0.56271957    -0.02800
C4547       C  0.35304186  0.56860674  0.54556743     0.07100
C4548       C  0.36972602  0.58925585  0.55564757    -0.03000
Br4549     Br  0.37676053  0.62129016  0.53402555    -0.01600
Br4550     Br  0.41643335  0.60554971  0.58598259    -0.01600
Br4551     Br  0.32142258  0.51907374  0.54875559    -0.01600
Br4552     Br  0.34291442  0.51794750  0.61416641    -0.01600
C4553       C  0.36411790  0.62958728  0.62892367    -0.02700
C4554       C  0.37503208  0.65295472  0.61522393     0.07000
C4555       C  0.40209804  0.66008368  0.62297913    -0.02800
C4556       C  0.41672322  0.64519556  0.64353726    -0.02800
C4557       C  0.40628859  0.62123769  0.65586534     0.07100
C4558       C  0.37859275  0.61560779  0.65015093    -0.03000
Br4559     Br  0.35850941  0.59155173  0.67398094    -0.01600
Br4560     Br  0.33027327  0.61378228  0.61725786    -0.01600
Br4561     Br  0.44810616  0.66152033  0.66016449    -0.01600
Br4562     Br  0.42089924  0.68936904  0.60482879    -0.01600
C4563       C  0.01538512  0.22259369  0.78408942    -0.02700
C4564       C  0.99569345  0.22543791  0.80505628     0.07000
C4565       C  0.00105858  0.24583308  0.82502773    -0.02800
C4566       C  0.02192424  0.26552133  0.82129264    -0.02800
C4567       C  0.04001246  0.26410973  0.79912639     0.07100
C4568       C  0.03779262  0.24102911  0.78198846    -0.03000
Br4569     Br  0.06670013  0.23343008  0.75696940    -0.01600
Br4570     Br  0.01271798  0.19305393  0.75855772    -0.01600
Br4571     Br  0.02726530  0.29383807  0.84780755    -0.01600
Br4572     Br  0.98282783  0.24470645  0.85991416    -0.01600
C4573       C  0.16878269  0.41123785  0.70476306    -0.02700
C4574       C  0.19408926  0.41853420  0.71529425     0.07000
C4575       C  0.19601055  0.42159559  0.74365713    -0.02800
C4576       C  0.17694852  0.40893898  0.76085701    -0.02800
C4577       C  0.15498023  0.39413879  0.74985663     0.07100
C4578       C  0.14910893  0.39862278  0.72169842    -0.03000
Br4579     Br  0.11585266  0.38630211  0.70514726    -0.01600
Br4580     Br  0.16194800  0.41913802  0.66735406    -0.01600
Br4581     Br  0.18178904  0.41203060  0.79910774    -0.01600
Br4582     Br  0.22841352  0.43766503  0.75840537    -0.01600
C4583       C  0.17841070  0.29904259  0.88837377    -0.02700
C4584       C  0.18051643  0.32030007  0.86890463     0.07000
C4585       C  0.19773662  0.34234467  0.87424566    -0.02800
C4586       C  0.21460172  0.34160369  0.89713916    -0.02800
C4587       C  0.21748899  0.31726860  0.91164894     0.07100
C4588       C  0.19668251  0.29815111  0.91030222    -0.03000
Br4589     Br  0.19545715  0.27019696  0.93768710    -0.01600
Br4590     Br  0.15274649  0.26988616  0.88403896    -0.01600
Br4591     Br  0.23742114  0.37180344  0.90598690    -0.01600
Br4592     Br  0.19961496  0.37267619  0.85008361    -0.01600
C4593       C  0.15556800  0.18584588  0.79659096    -0.02700
C4594       C  0.18264373  0.18258965  0.78837046     0.07000
C4595       C  0.19884984  0.20556288  0.78304054    -0.02800
C4596       C  0.18811819  0.23153949  0.78628806    -0.02800
C4597       C  0.16190023  0.23480137  0.79724736     0.07100
C4598       C  0.14589576  0.21174084  0.80319924    -0.03000
Br4599     Br  0.11099390  0.21487951  0.82065515    -0.01600
Br4600     Br  0.13118334  0.15540943  0.79767659    -0.01600
Br4601     Br  0.21028471  0.26235518  0.77620836    -0.01600
Br4602     Br  0.23566579  0.20178852  0.77015316    -0.01600
C4603       C  0.11830361  0.27685849  0.69102542    -0.02700
C4604       C  0.13273411  0.29782701  0.70426420     0.07000
C4605       C  0.15840164  0.30534643  0.69316230    -0.02800
C4606       C  0.17089818  0.28931125  0.67321422    -0.02800
C4607       C  0.15764640  0.26679612  0.66191652     0.07100
C4608       C  0.13108952  0.26090355  0.67069149    -0.03000
Br4609     Br  0.11361930  0.22889921  0.65763138    -0.01600
Br4610     Br  0.08065962  0.27114060  0.69875863    -0.01600
Br4611     Br  0.20724091  0.29759434  0.66241891    -0.01600
Br4612     Br  0.17725074  0.33826781  0.70390402    -0.01600
C4613       C  0.23288560  0.46911924  0.01029269    -0.02700
C4614       C  0.23381709  0.45776333  0.98364554     0.07000
C4615       C  0.25687513  0.44249673  0.97704700    -0.02800
C4616       C  0.27714802  0.43700880  0.99691648    -0.02800
C4617       C  0.27780708  0.45076078  0.02256007     0.07100
C4618       C  0.25512718  0.46722044  0.02876507    -0.03000
Br4619     Br  0.25338884  0.48697382  0.06270798    -0.01600
Br4620     Br  0.20050480  0.48662586  0.02244367    -0.01600
Br4621     Br  0.30079227  0.40671508  0.99002992    -0.01600
Br4622     Br  0.26036119  0.42808658  0.94087697    -0.01600
C4623       C  0.10245025  0.52640222  0.85760960    -0.02700
C4624       C  0.10186906  0.50019294  0.86941714     0.07000
C4625       C  0.08010411  0.48296733  0.86230549    -0.02800
C4626       C  0.05773673  0.49351524  0.84826978    -0.02800
C4627       C  0.05456201  0.52190401  0.84588872     0.07100
C4628       C  0.07819826  0.53805476  0.84746008    -0.03000
Br4629     Br  0.07770898  0.57545469  0.83598342    -0.01600
Br4630     Br  0.13630417  0.54493198  0.85330019    -0.01600
Br4631     Br  0.03079142  0.46924405  0.83350048    -0.01600
Br4632     Br  0.07939420  0.44538640  0.87325904    -0.01600
C4633       C  0.13203706  0.60167708  0.96264272    -0.02700
C4634       C  0.13345874  0.59937494  0.99148561     0.07000
C4635       C  0.15337564  0.58152597  0.00206221    -0.02800
C4636       C  0.16791353  0.56397909  0.98464164    -0.02800
C4637       C  0.16030229  0.56095502  0.95738362     0.07100
C4638       C  0.14467177  0.58201805  0.94594412    -0.03000
Br4639     Br  0.14303448  0.58536671  0.90714612    -0.01600
Br4640     Br  0.11322195  0.63118120  0.94527258    -0.01600
Br4641     Br  0.20118245  0.54791416  0.99594886    -0.01600
Br4642     Br  0.16215636  0.58136664  0.03986815    -0.01600
C4643       C  0.14034301  0.45535117  0.05167524    -0.02700
C4644       C  0.12976155  0.47426160  0.03260989     0.07000
C4645       C  0.11034248  0.49354857  0.04100357    -0.02800
C4646       C  0.09926615  0.49142493  0.06709114    -0.02800
C4647       C  0.10809903  0.47115908  0.08504623     0.07100
C4648       C  0.13014827  0.45482388  0.07825977    -0.03000
Br4649     Br  0.14568797  0.43107769  0.10491101    -0.01600
Br4650     Br  0.16728576  0.42858660  0.04178983    -0.01600
Br4651     Br  0.07129571  0.51583082  0.07814694    -0.01600
Br4652     Br  0.09572353  0.52097557  0.01662243    -0.01600
C4653       C  0.13646351  0.38035352  0.89225348    -0.02700
C4654       C  0.14636033  0.40615999  0.88309036     0.07000
C4655       C  0.13645939  0.41531642  0.85722932    -0.02800
C4656       C  0.11813834  0.39933206  0.84127503    -0.02800
C4657       C  0.10832105  0.37356689  0.85048741     0.07100
C4658       C  0.11653498  0.36546674  0.87722859    -0.03000
Br4659     Br  0.09980873  0.33428004  0.89476023    -0.01600
Br4660     Br  0.15075899  0.36344675  0.92495113    -0.01600
Br4661     Br  0.10436113  0.41536361  0.80782854    -0.01600
Br4662     Br  0.14644390  0.45080842  0.84297535    -0.01600
C4663       C  0.51352913  0.77279150  0.81468591    -0.02700
C4664       C  0.49328206  0.77146082  0.79454383     0.07000
C4665       C  0.49597429  0.75038059  0.77493312    -0.02800
C4666       C  0.51674949  0.73025458  0.77692019    -0.02800
C4667       C  0.53468216  0.72957724  0.79950853     0.07100
C4668       C  0.53266628  0.75154479  0.81838540    -0.03000
Br4669     Br  0.55499400  0.75256524  0.85080012    -0.01600
Br4670     Br  0.51755976  0.80623755  0.83418383    -0.01600
Br4671     Br  0.52149080  0.70468051  0.74757532    -0.01600
Br4672     Br  0.47264277  0.74986942  0.74382831    -0.01600
C4673       C  0.41607055  0.77692307  0.68049764    -0.02700
C4674       C  0.41256055  0.76167490  0.70473904     0.07000
C4675       C  0.40384826  0.73445630  0.70263877    -0.02800
C4676       C  0.39302726  0.72485325  0.67815453    -0.02800
C4677       C  0.39060883  0.74240604  0.65554477     0.07100
C4678       C  0.40594867  0.76663820  0.65549357    -0.03000
Br4679     Br  0.41376725  0.78492518  0.62164316    -0.01600
Br4680     Br  0.43153754  0.81280749  0.68193058    -0.01600
Br4681     Br  0.37810161  0.68864821  0.67697799    -0.01600
Br4682     Br  0.40274610  0.71110253  0.73412757    -0.01600
C4683       C  0.39228708  0.69977269  0.85034180    -0.02700
C4684       C  0.40606028  0.70640629  0.82622306     0.07000
C4685       C  0.41056074  0.68568683  0.80729478    -0.02800
C4686       C  0.39364164  0.66266075  0.80751004    -0.02800
C4687       C  0.37341763  0.66052419  0.82782266     0.07100
C4688       C  0.37404578  0.67815080  0.85023482    -0.03000
Br4689     Br  0.34910346  0.67387122  0.87986084    -0.01600
Br4690     Br  0.40035224  0.71820167  0.88371129    -0.01600
Br4691     Br  0.39717387  0.63567350  0.77943986    -0.01600
Br4692     Br  0.44249753  0.68772485  0.78507555    -0.01600
C4693       C  0.29978687  0.78204829  0.88208303    -0.02700
C4694       C  0.27950855  0.79273939  0.86502935     0.07000
C4695       C  0.28681153  0.80929250  0.84262177    -0.02800
C4696       C  0.31409540  0.81363827  0.83674469    -0.02800
C4697       C  0.33372302  0.79829056  0.85035365     0.07100
C4698       C  0.32692219  0.78392672  0.87408661    -0.03000
Br4699     Br  0.35492522  0.76810036  0.89596496    -0.01600
Br4700     Br  0.29092046  0.76666618  0.91691488    -0.01600
Br4701     Br  0.32464303  0.84243811  0.81233829    -0.01600
Br4702     Br  0.26008397  0.82425739  0.81824293    -0.01600
C4703       C  0.31315620  0.82499202  0.73789259    -0.02700
C4704       C  0.33771956  0.83906621  0.74281087     0.07000
C4705       C  0.33897958  0.86696969  0.73513738    -0.02800
C4706       C  0.31570765  0.88086400  0.72518324    -0.02800
C4707       C  0.29114600  0.86679439  0.72091637     0.07100
C4708       C  0.29032471  0.83849460  0.72728421    -0.03000
Br4709     Br  0.25820838  0.81646461  0.72081495    -0.01600
Br4710     Br  0.31057018  0.78603429  0.74332014    -0.01600
Br4711     Br  0.31740814  0.91937023  0.71791678    -0.01600
Br4712     Br  0.37254373  0.88651937  0.73680411    -0.01600
C4713       C  0.26991018  0.93355023  0.99055385    -0.02700
C4714       C  0.28511375  0.95666890  0.98268077     0.07000
C4715       C  0.27932133  0.98097108  0.99737085    -0.02800
C4716       C  0.25814769  0.98213985  0.01772162    -0.02800
C4717       C  0.24255404  0.95880148  0.02492519     0.07100
C4718       C  0.24935933  0.93439412  0.01103752    -0.03000
Br4719     Br  0.23067203  0.90101329  0.02032723    -0.01600
Br4720     Br  0.27700589  0.90010669  0.97237116    -0.01600
Br4721     Br  0.24987136  0.01615020  0.03499920    -0.01600
Br4722     Br  0.30128079  0.01258715  0.99077990    -0.01600
C4723       C  0.40563169  0.03052129  0.85441063    -0.02700
C4724       C  0.40938744  0.00294232  0.86135998     0.07000
C4725       C  0.43027583  0.98924868  0.84774002    -0.02800
C4726       C  0.45123189  0.00368908  0.83484277    -0.02800
C4727       C  0.45128844  0.03207917  0.83559910     0.07100
C4728       C  0.42703463  0.04530949  0.84215843    -0.03000
Br4729     Br  0.42357067  0.08318166  0.83346376    -0.01600
Br4730     Br  0.37084322  0.04675475  0.85785618    -0.01600
Br4731     Br  0.48082810  0.98503885  0.81771034    -0.01600
Br4732     Br  0.42813295  0.95118027  0.84383083    -0.01600
C4733       C  0.44984811  0.87958419  0.90932614    -0.02700
C4734       C  0.42770138  0.88201824  0.92719887     0.07000
C4735       C  0.42403989  0.86160543  0.94735965    -0.02800
C4736       C  0.44579897  0.84437625  0.95412892    -0.02800
C4737       C  0.46938844  0.84484577  0.93827047     0.07100
C4738       C  0.46889131  0.85897676  0.91340150    -0.03000
Br4739     Br  0.49434587  0.85014251  0.88520107    -0.01600
Br4740     Br  0.45527341  0.90384615  0.87964551    -0.01600
Br4741     Br  0.44387808  0.82071246  0.98519101    -0.01600
Br4742     Br  0.39064799  0.85869064  0.96740523    -0.01600
C4743       C  0.42888707  0.92184902  0.01938616    -0.02700
C4744       C  0.40305356  0.93324900  0.01675127     0.07000
C4745       C  0.38905673  0.94257939  0.03964033    -0.02800
C4746       C  0.40276756  0.94477245  0.06445719    -0.02800
C4747       C  0.42890696  0.93363919  0.06707600     0.07100
C4748       C  0.44173251  0.92151641  0.04464042    -0.03000
Br4749     Br  0.47755981  0.90596568  0.04751613    -0.01600
Br4750     Br  0.44723564  0.90717011  0.98852375    -0.01600
Br4751     Br  0.38795347  0.96798297  0.09222216    -0.01600
Br4752     Br  0.35127984  0.95190236  0.03694338    -0.01600
C4753       C  0.38043075  0.04434892  0.99348387    -0.02700
C4754       C  0.37174451  0.04368052  0.96605620     0.07000
C4755       C  0.37043646  0.06848528  0.95168913    -0.02800
C4756       C  0.38291937  0.09212087  0.96229776    -0.02800
C4757       C  0.39240888  0.09245944  0.98950004     0.07100
C4758       C  0.38924505  0.06884331  0.00552944    -0.03000
Br4759     Br  0.39911929  0.06948307  0.04359219    -0.01600
Br4760     Br  0.38138654  0.01153712  0.01446804    -0.01600
Br4761     Br  0.38984311  0.12259918  0.93847841    -0.01600
Br4762     Br  0.35037333  0.07035853  0.91839943    -0.01600
C4763       C  0.36280904  0.87722147  0.87685057    -0.02700
C4764       C  0.35657756  0.90413132  0.86849611     0.07000
C4765       C  0.36806794  0.91230117  0.84300675    -0.02800
C4766       C  0.38688159  0.89536861  0.82852860    -0.02800
C4767       C  0.39598932  0.87011928  0.83937541     0.07100
C4768       C  0.38463459  0.86248203  0.86506158    -0.03000
Br4769     Br  0.40022891  0.83389486  0.88703419    -0.01600
Br4770     Br  0.33905501  0.85826935  0.90172408    -0.01600
Br4771     Br  0.40266264  0.90853371  0.79500127    -0.01600
Br4772     Br  0.35570963  0.94522286  0.82567935    -0.01600
C4773       C  0.98308629  0.98151744  0.25499815    -0.02700
C4774       C  0.96192880  0.97951250  0.27473163     0.07000
C4775       C  0.94135561  0.99982703  0.27292361    -0.02800
C4776       C  0.94376189  0.02249985  0.25471036    -0.02800
C4777       C  0.96440673  0.02408944  0.23487900     0.07100
C4778       C  0.98354847  0.00273529  0.23484439    -0.03000
Br4779     Br  0.00971689  0.00173136  0.20578331    -0.01600
Br4780     Br  0.01039566  0.95374030  0.25321849    -0.01600
Br4781     Br  0.91875304  0.05224918  0.25675888    -0.01600
Br4782     Br  0.90771308  0.99573967  0.29248448    -0.01600
C4783       C  0.02544830  0.84731492  0.40294018    -0.02700
C4784       C  0.00221983  0.86380174  0.40584812     0.07000
C4785       C  0.98428231  0.85809430  0.42755768    -0.02800
C4786       C  0.99126875  0.83857520  0.44717184    -0.02800
C4787       C  0.01807403  0.82975533  0.44898774     0.07100
C4788       C  0.03422506  0.83146873  0.42542137    -0.03000
Br4789     Br  0.06956492  0.81522326  0.42593927    -0.01600
Br4790     Br  0.04526578  0.84647796  0.36926874    -0.01600
Br4791     Br  0.96643601  0.82793760  0.47516167    -0.01600
Br4792     Br  0.95163536  0.87877091  0.43258787    -0.01600
C4793       C  0.93776389  0.97709575  0.45891041    -0.02700
C4794       C  0.92273994  0.97057382  0.43546621     0.07000
C4795       C  0.89432172  0.97102583  0.43626487    -0.02800
C4796       C  0.88124922  0.97059302  0.46153776    -0.02800
C4797       C  0.89626808  0.97611619  0.48519042     0.07100
C4798       C  0.92423348  0.98175818  0.48346047    -0.03000
Br4799     Br  0.94454310  0.99470278  0.51452225    -0.01600
Br4800     Br  0.97672664  0.98052885  0.45725531    -0.01600
Br4801     Br  0.84344228  0.96105885  0.46357734    -0.01600
Br4802     Br  0.87331730  0.97541500  0.40362345    -0.01600
C4803       C  0.99524944  0.04254741  0.39010625    -0.02700
C4804       C  0.97487414  0.03231628  0.37304718     0.07000
C4805       C  0.94852585  0.04243027  0.37553565    -0.02800
C4806       C  0.94149317  0.05759395  0.39842594    -0.02800
C4807       C  0.96124441  0.06537628  0.41749045     0.07100
C4808       C  0.98835924  0.05775029  0.41316389    -0.03000
Br4809     Br  0.01592571  0.06513619  0.43942350    -0.01600
Br4810     Br  0.03209940  0.03213678  0.38351221    -0.01600
Br4811     Br  0.90405944  0.06387351  0.40576855    -0.01600
Br4812     Br  0.92091449  0.03229739  0.34998314    -0.01600
C4813       C  0.07128054  0.98153495  0.34572948    -0.02700
C4814       C  0.06483908  0.95523311  0.35510752     0.07000
C4815       C  0.08293067  0.94198494  0.37277852    -0.02800
C4816       C  0.10467212  0.95623853  0.38411313    -0.02800
C4817       C  0.10701062  0.98440384  0.37997869     0.07100
C4818       C  0.09324665  0.99575970  0.35742262    -0.03000
Br4819     Br  0.10598801  0.02856196  0.34051483    -0.01600
Br4820     Br  0.04763700  0.99930426  0.32004531    -0.01600
Br4821     Br  0.13330787  0.93617101  0.40101673    -0.01600
Br4822     Br  0.07535872  0.90595676  0.38573345    -0.01600
C4823       C  0.77455666  0.76752656  0.49397623    -0.02700
C4824       C  0.77356203  0.78865677  0.47404618     0.07000
C4825       C  0.75095572  0.80684423  0.47623684    -0.02800
C4826       C  0.73104969  0.80417042  0.49736156    -0.02800
C4827       C  0.73257850  0.78374220  0.51756667     0.07100
C4828       C  0.75422943  0.76492034  0.51489419    -0.03000
Br4829     Br  0.75467340  0.73370737  0.53848048    -0.01600
Br4830     Br  0.80360651  0.74147325  0.49281777    -0.01600
Br4831     Br  0.70057773  0.82844494  0.49855468    -0.01600
Br4832     Br  0.74685268  0.83716576  0.45139155    -0.01600
C4833       C  0.77800668  0.69560482  0.38582148    -0.02700
C4834       C  0.80271666  0.70500184  0.37491779     0.07000
C4835       C  0.81340254  0.69153039  0.35172155    -0.02800
C4836       C  0.79872696  0.67111121  0.33835126    -0.02800
C4837       C  0.77350762  0.66225067  0.34853656     0.07100
C4838       C  0.76393629  0.67384306  0.37323869    -0.03000
Br4839     Br  0.73111757  0.66118175  0.38991948    -0.01600
Br4840     Br  0.76207504  0.71379231  0.41662056    -0.01600
Br4841     Br  0.81440696  0.65536806  0.30597470    -0.01600
Br4842     Br  0.84837859  0.70083733  0.33686452    -0.01600
C4843       C  0.74158476  0.81838023  0.32640595    -0.02700
C4844       C  0.74537326  0.80379638  0.35076061     0.07000
C4845       C  0.72449526  0.78790065  0.36180511    -0.02800
C4846       C  0.70087859  0.78403351  0.34670009    -0.02800
C4847       C  0.69655542  0.79979453  0.32307284     0.07100
C4848       C  0.71642483  0.81798501  0.31370278    -0.03000
Br4849     Br  0.70923490  0.84337276  0.28464434    -0.01600
Br4850     Br  0.77099980  0.83743056  0.30923725    -0.01600
Br4851     Br  0.67599609  0.75544278  0.35691899    -0.01600
Br4852     Br  0.72765683  0.77272038  0.39787408    -0.01600
C4853       C  0.80447937  0.88681564  0.34017419    -0.02700
C4854       C  0.82761665  0.87016781  0.33731118     0.07000
C4855       C  0.84693759  0.87686787  0.31751001    -0.02800
C4856       C  0.84223222  0.89919567  0.30072453    -0.02800
C4857       C  0.81514902  0.90692212  0.29631736     0.07100
C4858       C  0.79701247  0.90367584  0.31816497    -0.03000
Br4859     Br  0.76226797  0.92090633  0.31740202    -0.01600
Br4860     Br  0.78179443  0.88459153  0.37209827    -0.01600
Br4861     Br  0.87179904  0.91648947  0.28156489    -0.01600
Br4862     Br  0.87813654  0.85503308  0.31126334    -0.01600
C4863       C  0.91319123  0.75970622  0.32824616    -0.02700
C4864       C  0.90105615  0.74896497  0.35222073     0.07000
C4865       C  0.90662145  0.72133411  0.35858584    -0.12400
C4866       C  0.91660843  0.70392976  0.33797714    -0.02800
C4867       C  0.92346529  0.71412661  0.31193753     0.07100
C4868       C  0.92482175  0.74241658  0.30855021    -0.03000
Br4869     Br  0.94044668  0.75730880  0.27567654    -0.01600
Br4870     Br  0.91405428  0.79793427  0.32164437    -0.01600
Br4871     Br  0.91842375  0.66562014  0.34448036    -0.01600
Br4872     Br  0.89822328  0.70576820  0.39399497    -0.01600
C4873       C  0.87546783  0.87234902  0.40241691    -0.02700
C4874       C  0.88419459  0.84540476  0.40754999     0.07000
C4875       C  0.90873980  0.83744373  0.39437600    -0.02800
C4876       C  0.92237831  0.85497285  0.37531922    -0.02800
C4877       C  0.91200670  0.88103785  0.36854249     0.07100
C4878       C  0.88723022  0.88831509  0.38133089    -0.03000
Br4879     Br  0.86654018  0.91850871  0.36746695    -0.01600
Br4880     Br  0.84765808  0.88878955  0.42460347    -0.01600
Br4881     Br  0.95547235  0.84258847  0.35894856    -0.01600
Br4882     Br  0.92637923  0.80403109  0.40489236    -0.01600
C4883       C  0.81499275  0.48472023  0.76971405    -0.02700
C4884       C  0.79098708  0.47664338  0.78392895     0.07000
C4885       C  0.76603647  0.48542584  0.77187799    -0.02800
C4886       C  0.76536400  0.50078998  0.74695170    -0.02800
C4887       C  0.78928216  0.51044661  0.73449517     0.07100
C4888       C  0.81389161  0.50091010  0.74543880    -0.03000
Br4889     Br  0.84619775  0.50910240  0.72497912    -0.01600
Br4890     Br  0.85021057  0.47493454  0.78328551    -0.01600
Br4891     Br  0.73165330  0.50642548  0.72812714    -0.01600
Br4892     Br  0.73205287  0.47925409  0.79018527    -0.01600
C4893       C  0.70928387  0.35346369  0.77417089    -0.02700
C4894       C  0.70712882  0.38050849  0.78373940     0.07000
C4895       C  0.68122498  0.39233547  0.78602059    -0.02800
C4896       C  0.65792962  0.37781227  0.77738823    -0.02800
C4897       C  0.66042699  0.35074543  0.76839871     0.07100
C4898       C  0.68605195  0.33809941  0.76948296    -0.03000
Br4899     Br  0.68990351  0.29898522  0.76499535    -0.01600
Br4900     Br  0.74359376  0.33596993  0.76693181    -0.01600
Br4901     Br  0.62312375  0.39502924  0.77775518    -0.01600
Br4902     Br  0.67789736  0.42865670  0.79967297    -0.01600
C4903       C  0.80530990  0.40818102  0.70330562    -0.02700
C4904       C  0.82360668  0.40585334  0.72499153     0.07000
C4905       C  0.84836756  0.39278811  0.72070017    -0.02800
C4906       C  0.85078508  0.37465535  0.69887783    -0.02800
C4907       C  0.82998074  0.37291516  0.67936123     0.07100
C4908       C  0.80931514  0.39263236  0.67965142    -0.03000
Br4909     Br  0.78600313  0.39749596  0.64861650    -0.01600
Br4910     Br  0.77378229  0.43051996  0.70767705    -0.01600
Br4911     Br  0.88191466  0.35208046  0.69667580    -0.01600
Br4912     Br  0.87727384  0.39731254  0.74671153    -0.01600
C4913       C  0.84806487  0.31072009  0.77349404    -0.02700
C4914       C  0.85533953  0.33052605  0.79245185     0.07000
C4915       C  0.87847143  0.32728109  0.80884549    -0.02800
C4916       C  0.89122787  0.30182132  0.81003214    -0.02800
C4917       C  0.88140072  0.28031350  0.79373694     0.07100
C4918       C  0.86030333  0.28532976  0.77454631    -0.03000
Br4919     Br  0.84461677  0.25746706  0.75156271    -0.01600
Br4920     Br  0.82106686  0.31878126  0.74592238    -0.01600
Br4921     Br  0.92146819  0.29664775  0.83437677    -0.01600
Br4922     Br  0.89251239  0.35752734  0.82943995    -0.01600
C4923       C  0.71767793  0.32509488  0.85407638    -0.02700
C4924       C  0.74189696  0.33389593  0.86541016     0.07000
C4925       C  0.74941441  0.32244620  0.89092491    -0.02800
C4926       C  0.73578853  0.29873812  0.90078210    -0.02800
C4927       C  0.71628184  0.28560780  0.88398822     0.07100
C4928       C  0.70736392  0.29964762  0.86026352    -0.03000
Br4929     Br  0.68227512  0.28551395  0.83366696    -0.01600
Br4930     Br  0.69311923  0.35161698  0.84023052    -0.01600
Br4931     Br  0.74427007  0.28464638  0.93660213    -0.01600
Br4932     Br  0.77557825  0.34038896  0.91363045    -0.01600
C4933       C  0.98341671  0.25061866  0.98022535    -0.02700
C4934       C  0.98339449  0.27251215  0.96108795     0.07000
C4935       C  0.00489299  0.27238276  0.94150029    -0.02800
C4936       C  0.02387826  0.25048072  0.93982557    -0.02800
C4937       C  0.02404979  0.22907978  0.95917715     0.07100
C4938       C  0.00383776  0.22997110  0.97975470    -0.03000
Br4939     Br  0.00453217  0.20284390  0.00811881    -0.01600
Br4940     Br  0.95457994  0.24747347  0.00656193    -0.01600
Br4941     Br  0.04946208  0.24923779  0.91018325    -0.01600
Br4942     Br  0.01051990  0.30329657  0.91795297    -0.01600
C4943       C  0.88282686  0.39554579  0.06557547    -0.02700
C4944       C  0.87474492  0.39048965  0.03859086     0.07000
C4945       C  0.84802538  0.39773846  0.03150857    -0.02800
C4946       C  0.83542587  0.41934772  0.04561016    -0.02800
C4947       C  0.84819814  0.43042274  0.06868782     0.07100
C4948       C  0.86806472  0.41422376  0.08124349    -0.03000
Br4949     Br  0.87353482  0.41731270  0.11971296    -0.01600
Br4950     Br  0.91314066  0.37657688  0.08097802    -0.01600
Br4951     Br  0.79950654  0.43066100  0.03668543    -0.01600
Br4952     Br  0.82641036  0.37256182  0.01083132    -0.01600
C4953       C  0.91102223  0.44344515  0.89996244    -0.02700
C4954       C  0.92791079  0.42034179  0.89998704     0.07000
C4955       C  0.94240479  0.41450131  0.87524020    -0.02800
C4956       C  0.94643950  0.43529936  0.85589611    -0.02800
C4957       C  0.93293697  0.45975221  0.85899544     0.07100
C4958       C  0.91112247  0.46056681  0.87710852    -0.03000
Br4959     Br  0.88045149  0.48274091  0.86838785    -0.01600
Br4960     Br  0.89067457  0.45513351  0.93097597    -0.01600
Br4961     Br  0.96929532  0.43085264  0.82452520    -0.01600
Br4962     Br  0.95823863  0.37950397  0.86719531    -0.01600
C4963       C  0.02523912  0.41598357  0.93696592    -0.02700
C4964       C  0.02280609  0.38981139  0.94852247     0.07000
C4965       C  0.04560466  0.37693104  0.95986311    -0.02800
C4966       C  0.07035802  0.39100977  0.96095462    -0.02800
C4967       C  0.07196349  0.41798985  0.95117899     0.07100
C4968       C  0.04895498  0.43083193  0.94036699    -0.03000
Br4969     Br  0.04818383  0.46949112  0.93276947    -0.01600
Br4970     Br  0.99626360  0.43211065  0.91622244    -0.01600
Br4971     Br  0.10034306  0.37527234  0.98058563    -0.01600
Br4972     Br  0.04202831  0.34200077  0.97764131    -0.01600
C4973       C  0.00762922  0.38741499  0.04836723    -0.02700
C4974       C  0.98739477  0.36717170  0.05181567     0.07000
C4975       C  0.98479841  0.35500929  0.07793499    -0.02800
C4976       C  0.99762627  0.36712633  0.10089832    -0.02800
C4977       C  0.01472510  0.39004778  0.09730346     0.07100
C4978       C  0.02177381  0.39777177  0.07067285    -0.03000
Br4979     Br  0.05133350  0.42253929  0.06401670    -0.01600
Br4980     Br  0.01600012  0.40335323  0.01352658    -0.01600
Br4981     Br  0.99048882  0.35306206  0.13695587    -0.01600
Br4982     Br  0.96396692  0.32219182  0.08255362    -0.01600
C4983       C  0.85503904  0.38110387  0.93490165    -0.02700
C4984       C  0.86570341  0.35439519  0.93026806     0.07000
C4985       C  0.85656663  0.34145301  0.90651179    -0.02800
C4986       C  0.83950202  0.35497552  0.88752922    -0.02800
C4987       C  0.83208228  0.38279037  0.89054390     0.07100
C4988       C  0.83795967  0.39469737  0.91571461    -0.03000
Br4989     Br  0.82296231  0.43013869  0.92324821    -0.01600
Br4990     Br  0.86503388  0.40182450  0.96546496    -0.01600
Br4991     Br  0.82389642  0.33338701  0.85941319    -0.01600
Br4992     Br  0.86994323  0.30556793  0.89874124    -0.01600
loop_ 
_geom_bond_atom_site_label_1 
_geom_bond_atom_site_label_2 
_geom_bond_distance 
_geom_bond_site_symmetry_2 
_ccdc_geom_bond_type 
O1          Cr19   1.961       .  S
O1            C9   1.267       .  A
O2          Cr19   2.008       .  S
O2            C3   1.252       .  A
C3            O4   1.260       .  A
C3         C4934   1.558       .  S
O4          Cr20   2.049       .  S
O5          Cr20   2.039   1_554  S
O5            C6   1.282       .  A
C6            O7   1.266       .  A
C6         C4974   1.503       .  S
O7          Cr21   1.967   1_554  S
O8          Cr21   2.010       .  S
O8            C9   1.277       .  A
C9         C4964   1.465   1_655  S
O10         Cr19   1.949       .  S
O10          C18   1.240       .  A
O11         Cr19   1.963       .  S
O11          C12   1.266       .  A
C12          O13   1.303       .  A
C12        C4984   1.536       .  S
O13         Cr20   2.099       .  S
O14         Cr20   1.986   1_554  S
O14          C15   1.250       .  A
C15          O16   1.265       .  A
C15        C4944   1.496       .  S
O16         Cr21   2.010   1_554  S
O17         Cr21   2.034       .  S
O17          C18   1.264       .  A
C18        C4954   1.496       .  S
Cr19         O22   1.793       .  S
Cr20         O22   1.765       .  S
Cr21         O22   1.766       .  S
O23         Cr41   1.973       .  S
O23          C31   1.254       .  A
O24         Cr41   2.003       .  S
O24          C25   1.268       .  A
C25          O26   1.263       .  A
C25        C4884   1.558       .  S
O26         Cr42   2.034       .  S
O27         Cr42   2.054       .  S
O27          C28   1.270       .  A
C28          O29   1.242       .  A
C28        C4894   1.485       .  S
O29         Cr43   1.956       .  S
O30         Cr43   1.995       .  S
O30          C31   1.265       .  A
C31        C4904   1.459       .  S
O32         Cr41   1.986       .  S
O32          C40   1.258       .  A
O33         Cr41   1.970       .  S
O33          C34   1.253       .  A
C34          O35   1.288       .  A
C34        C4987   1.530       .  S
O35         Cr42   2.052       .  S
O36         Cr42   1.985       .  S
O36          C37   1.256       .  A
C37          O38   1.279       .  A
C37        C4924   1.500       .  S
O38         Cr43   2.059       .  S
O39         Cr43   1.951       .  S
O39          C40   1.264       .  A
C40        C4914   1.456       .  S
Cr41         O44   1.785       .  S
Cr42         O44   1.790       .  S
Cr43         O44   1.735       .  S
O45         Cr63   1.986       .  S
O45          C53   1.261       .  A
O46         Cr63   1.982       .  S
O46          C47   1.251       .  A
C47          O48   1.284       .  A
C47        C4824   1.561       .  S
O48         Cr64   2.100       .  S
O49         Cr64   2.028       .  S
O49          C50   1.279       .  A
C50          O51   1.260       .  A
C50        C4834   1.499       .  S
O51         Cr65   1.965       .  S
O52         Cr65   1.955       .  S
O52          C53   1.256       .  A
C53        C4844   1.444       .  S
O54         Cr63   1.943       .  S
O54          C62   1.243       .  A
O55         Cr63   1.994       .  S
O55          C56   1.272       .  A
C56          O57   1.262       .  A
C56        C4874   1.546       .  S
O57         Cr64   2.019       .  S
O58         Cr64   2.034       .  S
O58          C59   1.271       .  A
C59          O60   1.266       .  A
C59        C4864   1.518       .  S
O60         Cr65   1.991       .  S
O61         Cr65   2.001       .  S
O61          C62   1.260       .  A
C62        C4854   1.460       .  S
Cr63         O66   1.773       .  S
Cr64         O66   1.785       .  S
Cr65         O66   1.766       .  S
O67         Cr85   1.973       .  S
O67          C75   1.269   1_565  A
O68         Cr85   1.994       .  S
O68          C69   1.249       .  A
C69          O70   1.260       .  A
C69        C4774   1.554       .  S
O70         Cr86   2.058       .  S
O71         Cr86   2.023   1_455  S
O71          C72   1.272       .  A
C72          O73   1.253       .  A
C72        C4814   1.466       .  S
O73         Cr87   1.936   1_455  S
O74         Cr87   1.987       .  S
O74          C75   1.274   1_565  A
C75        C4804   1.458       .  S
O76         Cr85   1.988       .  S
O76          C84   1.247       .  A
O77         Cr85   1.955       .  S
O77          C78   1.264       .  A
C78          O79   1.299       .  A
C78        C4877   1.542       .  S
O79         Cr86   2.090       .  S
O80         Cr86   2.007       .  S
O80          C81   1.262       .  A
C81          O82   1.257       .  A
C81        C4784   1.488   1_655  S
O82         Cr87   1.970       .  S
O83         Cr87   1.968       .  S
O83          C84   1.250       .  A
C84        C4794   1.457       .  S
Cr85         O88   1.788       .  S
Cr86         O88   1.768       .  S
Cr87         O88   1.756       .  S
O89        Cr107   1.974       .  S
O89          C97   1.256       .  A
O90        Cr107   2.012       .  S
O90          C91   1.262       .  A
C91          O92   1.286       .  A
C91        C4714   1.559       .  S
O92        Cr108   2.093       .  S
O93        Cr108   2.014   1_545  S
O93          C94   1.271       .  A
C94          O95   1.271       .  A
C94        C4754   1.504       .  S
O95        Cr109   2.023   1_545  S
O96        Cr109   1.965       .  S
O96          C97   1.260       .  A
C97        C4744   1.447   1_556  S
O98        Cr107   1.974       .  S
O98         C106   1.253       .  A
O99        Cr107   1.995       .  S
O99         C100   1.267       .  A
C100        O101   1.268       .  A
C100       C4764   1.561       .  S
O101       Cr108   2.052       .  S
O102       Cr108   2.031       .  S
O102        C103   1.267       .  A
C103        O104   1.262       .  A
C103       C4724   1.508   1_565  S
O104       Cr109   1.988       .  S
O105       Cr109   2.025       .  S
O105        C106   1.267       .  A
C106       C4734   1.489       .  S
Cr107       O110   1.792       .  S
Cr108       O110   1.791       .  S
Cr109       O110   1.771       .  S
O111       Cr129   1.992       .  S
O111        C119   1.261       .  A
O112       Cr129   1.987       .  S
O112        C113   1.263       .  A
C113        O114   1.291       .  A
C113       C4664   1.538       .  S
O114       Cr130   2.088       .  S
O115       Cr130   2.001       .  S
O115        C116   1.264       .  A
C116        O117   1.256       .  A
C116       C4674   1.486       .  S
O117       Cr131   1.966       .  S
O118       Cr131   1.997       .  S
O118        C119   1.265       .  A
C119       C4684   1.480       .  S
O120       Cr129   1.971       .  S
O120        C128   1.249       .  A
O121       Cr129   1.999       .  S
O121        C122   1.261       .  A
C122        O123   1.264       .  A
C122       C4767   1.554       .  S
O123       Cr130   2.044       .  S
O124       Cr130   2.043       .  S
O124        C125   1.273       .  A
C125        O126   1.266       .  A
C125       C4704   1.521       .  S
O126       Cr131   1.982       .  S
O127       Cr131   1.991       .  S
O127        C128   1.258       .  A
C128       C4697   1.456       .  S
Cr129       O132   1.791       .  S
Cr130       O132   1.779       .  S
Cr131       O132   1.762       .  S
O133       Cr151   1.967       .  S
O133        C141   1.251       .  A
O134       Cr151   1.990       .  S
O134        C135   1.262       .  A
C135        O136   1.266       .  A
C135       C4654   1.551       .  S
O136       Cr152   2.027       .  S
O137       Cr152   2.068       .  S
O137        C138   1.283       .  A
C138        O139   1.262       .  A
C138       C4624   1.499       .  S
O139       Cr153   1.957       .  S
O140       Cr153   1.994       .  S
O140        C141   1.256       .  A
C141       C4967   1.459       .  S
O142       Cr151   1.995       .  S
O142        C150   1.268   1_556  A
O143       Cr151   1.971       .  S
O143        C144   1.256       .  A
C144        O145   1.286       .  A
C144       C4614   1.526       .  S
O145       Cr152   2.084       .  S
O146       Cr152   2.051       .  S
O146        C147   1.272       .  A
C147        O148   1.253       .  A
C147       C4637   1.505       .  S
O148       Cr153   1.993       .  S
O149       Cr153   1.958       .  S
O149        C150   1.261   1_556  A
C150       C4644   1.461       .  S
Cr151       O154   1.780       .  S
Cr152       O154   1.762       .  S
Cr153       O154   1.753       .  S
O155       Cr173   1.935       .  S
O155        C163   1.239       .  A
O156       Cr173   1.995       .  S
O156        C157   1.271       .  A
C157        O158   1.265       .  A
C157       C4657   1.552       .  S
O158       Cr174   2.017       .  S
O159       Cr174   2.037       .  S
O159        C160   1.271       .  A
C160        O161   1.270       .  A
C160       C4577   1.516       .  S
O161       Cr175   1.998       .  S
O162       Cr175   2.018       .  S
O162        C163   1.261       .  A
C163       C4584   1.466       .  S
O164       Cr173   2.001       .  S
O164        C172   1.264       .  A
O165       Cr173   1.983       .  S
O165        C166   1.252       .  A
C166        O167   1.280       .  A
C166       C4567   1.526       .  S
O167       Cr174   2.080       .  S
O168       Cr174   2.043       .  S
O168        C169   1.280       .  A
C169        O170   1.257       .  A
C169       C4604   1.512       .  S
O170       Cr175   1.962       .  S
O171       Cr175   1.951       .  S
O171        C172   1.256       .  A
C172       C4597   1.468       .  S
Cr173       O176   1.781       .  S
Cr174       O176   1.784       .  S
Cr175       O176   1.758       .  S
O177       Cr195   2.001       .  S
O177        C185   1.261       .  A
O178       Cr195   1.967       .  S
O178        C179   1.255       .  A
C179        O180   1.289       .  A
C179       C4504   1.544       .  S
O180       Cr196   2.094       .  S
O181       Cr196   2.013       .  S
O181        C182   1.265       .  A
C182        O183   1.256       .  A
C182       C4514   1.491       .  S
O183       Cr197   1.972       .  S
O184       Cr197   1.945       .  S
O184        C185   1.250       .  A
C185       C4524   1.449       .  S
O186       Cr195   1.938       .  S
O186        C194   1.243       .  A
O187       Cr195   2.005       .  S
O187        C188   1.270       .  A
C188        O189   1.268       .  A
C188       C4557   1.562       .  S
O189       Cr196   2.045       .  S
O190       Cr196   2.054       .  S
O190        C191   1.275       .  A
C191        O192   1.260       .  A
C191       C4534   1.501       .  S
O192       Cr197   1.968       .  S
O193       Cr197   1.998       .  S
O193        C194   1.261       .  A
C194       C4544   1.444       .  S
Cr195       O198   1.793       .  S
Cr196       O198   1.784       .  S
Cr197       O198   1.754       .  S
O199       Cr217   2.009       .  S
O199        C207   1.272       .  A
O200       Cr217   1.988       .  S
O200        C201   1.260       .  A
C201        O202   1.288       .  A
C201       C4464   1.538       .  S
O202       Cr218   2.087       .  S
O203       Cr218   2.061       .  S
O203        C204   1.273       .  A
C204        O205   1.248       .  A
C204       C4474   1.501       .  S
O205       Cr219   1.954       .  S
O206       Cr219   1.965       .  S
O206        C207   1.264       .  A
C207       C4494   1.463       .  S
O208       Cr217   1.979       .  S
O208        C216   1.253       .  A
O209       Cr217   2.006       .  S
O209        C210   1.266       .  A
C210        O211   1.270       .  A
C210       C4554   1.568       .  S
O211       Cr218   2.050       .  S
O212       Cr218   2.051       .  S
O212        C213   1.277       .  A
C213        O214   1.264       .  A
C213       C4677   1.490       .  S
O214       Cr219   1.950       .  S
O215       Cr219   1.978       .  S
O215        C216   1.248       .  A
C216       C4487   1.459       .  S
Cr217       O220   1.778       .  S
Cr218       O220   1.771       .  S
Cr219       O220   1.754       .  S
O221       Cr239   2.005       .  S
O221        C229   1.260       .  A
O222       Cr239   1.988       .  S
O222        C223   1.263       .  A
C223        O224   1.284       .  A
C223       C4414   1.521       .  S
O224       Cr240   2.068       .  S
O225       Cr240   2.010       .  S
O225        C226   1.266       .  A
C226        O227   1.260       .  A
C226       C4424   1.491       .  S
O227       Cr241   1.977       .  S
O228       Cr241   1.962       .  S
O228        C229   1.257       .  A
C229       C4434   1.466       .  S
O230       Cr239   1.971       .  S
O230        C238   1.249       .  A
O231       Cr239   1.997       .  S
O231        C232   1.262       .  A
C232        O233   1.266       .  A
C232       C4454   1.547       .  S
O233       Cr240   2.039       .  S
O234       Cr240   2.038       .  S
O234        C235   1.271       .  A
C235        O236   1.258       .  A
C235       C4517   1.517       .  S
O236       Cr241   1.959       .  S
O237       Cr241   2.008       .  S
O237        C238   1.261       .  A
C238       C4444   1.469       .  S
Cr239       O242   1.783       .  S
Cr240       O242   1.777       .  S
Cr241       O242   1.756       .  S
O243       Cr261   2.019       .  S
O243        C251   1.270       .  A
O244       Cr261   1.958       .  S
O244        C245   1.254       .  A
C245        O246   1.291       .  A
C245       C4374   1.549       .  S
O246       Cr262   2.088       .  S
O247       Cr262   2.027       .  S
O247        C248   1.272       .  A
C248        O249   1.263       .  A
C248       C4387   1.500       .  S
O249       Cr263   2.004       .  S
O250       Cr263   1.954       .  S
O250        C251   1.259       .  A
C251       C4407   1.461       .  S
O252       Cr261   1.961       .  S
O252        C260   1.242       .  A
O253       Cr261   1.999       .  S
O253        C254   1.266       .  A
C254        O255   1.265       .  A
C254       C4457   1.557       .  S
O255       Cr262   2.047       .  S
O256       Cr262   2.057       .  S
O256        C257   1.271       .  A
C257        O258   1.245       .  A
C257       C4897   1.485       .  S
O258       Cr263   1.924       .  S
O259       Cr263   2.001       .  S
O259        C260   1.260       .  A
C260       C4394   1.458       .  S
Cr261       O264   1.776       .  S
Cr262       O264   1.780       .  S
Cr263       O264   1.740       .  S
O265       Cr283   2.029       .  S
O265        C273   1.260       .  A
O266       Cr283   2.020       .  S
O266        C267   1.266       .  A
C267        O268   1.277       .  A
C267       C4334   1.548       .  S
O268       Cr284   2.072       .  S
O269       Cr284   2.063       .  S
O269        C270   1.283       .  A
C270        O271   1.268       .  A
C270       C4537   1.505       .  S
O271       Cr285   1.982       .  S
O272       Cr285   1.965       .  S
O272        C273   1.237       .  A
C273       C4344   1.483       .  S
O274       Cr283   2.039       .  S
O274        C282   1.272       .  A
O275       Cr283   1.991       .  S
O275        C276   1.267       .  A
C276        O277   1.284       .  A
C276       C4367   1.540       .  S
O277       Cr284   2.062       .  S
O278       Cr284   2.021       .  S
O278        C279   1.260       .  A
C279        O280   1.243       .  A
C279       C4427   1.491       .  S
O280       Cr285   1.961       .  S
O281       Cr285   1.951       .  S
O281        C282   1.258       .  A
C282       C4354   1.478       .  S
Cr283       O286   1.794       .  S
Cr284       O286   1.768       .  S
Cr285       O286   1.759       .  S
O287       Cr305   1.964       .  S
O287        C295   1.252       .  A
O288       Cr305   2.002       .  S
O288        C289   1.270       .  A
C289        O290   1.263       .  A
C289       C4297   1.563       .  S
O290       Cr306   2.035       .  S
O291       Cr306   2.045       .  S
O291        C292   1.271       .  A
C292        O293   1.257       .  A
C292       C4307   1.511       .  S
O293       Cr307   1.961       .  S
O294       Cr307   2.013       .  S
O294        C295   1.270       .  A
C295       C4314   1.461       .  S
O296       Cr305   2.004       .  S
O296        C304   1.259       .  A
O297       Cr305   1.992       .  S
O297        C298   1.260       .  A
C298        O299   1.286       .  A
C298       C4364   1.549       .  S
O299       Cr306   2.067       .  S
O300       Cr306   1.982       .  S
O300        C301   1.259       .  A
C301        O302   1.272       .  A
C301       C4837   1.502       .  S
O302       Cr307   2.018       .  S
O303       Cr307   1.960       .  S
O303        C304   1.259       .  A
C304       C4324   1.475       .  S
Cr305       O308   1.788       .  S
Cr306       O308   1.787       .  S
Cr307       O308   1.751       .  S
O309       Cr327   1.939       .  S
O309        C317   1.243       .  A
O310       Cr327   2.018       .  S
O310        C311   1.270       .  A
C311        O312   1.269       .  A
C311       C4284   1.572       .  S
O312       Cr328   2.043       .  S
O313       Cr328   2.043       .  S
O313        C314   1.279       .  A
C314        O315   1.267       .  A
C314       C4254   1.497       .  S
O315       Cr329   1.975       .  S
O316       Cr329   2.030       .  S
O316        C317   1.260       .  A
C317       C4807   1.469       .  S
O318       Cr327   2.022       .  S
O318        C326   1.275   1_655  A
O319       Cr327   1.967       .  S
O319        C320   1.253       .  A
C320        O321   1.287       .  A
C320       C4247   1.542       .  S
O321       Cr328   2.091       .  S
O322       Cr328   2.038       .  S
O322        C323   1.272       .  A
C323        O324   1.258       .  A
C323       C4267   1.499       .  S
O324       Cr329   2.006       .  S
O325       Cr329   1.959       .  S
O325        C326   1.259   1_655  A
C326       C4277   1.473       .  S
Cr327       O330   1.769       .  S
Cr328       O330   1.760       .  S
Cr329       O330   1.769       .  S
O331       Cr349   1.959       .  S
O331        C339   1.252       .  A
O332       Cr349   1.993       .  S
O332        C333   1.262       .  A
C333        O334   1.270       .  A
C333       C4287   1.563       .  S
O334       Cr350   2.063       .  S
O335       Cr350   2.051       .  S
O335        C336   1.274       .  A
C336        O337   1.251       .  A
C336       C4214   1.488       .  S
O337       Cr351   1.950       .  S
O338       Cr351   1.965       .  S
O338        C339   1.258       .  A
C339       C4227   1.450       .  S
O340       Cr349   1.992       .  S
O340        C348   1.259       .  A
O341       Cr349   1.973       .  S
O341        C342   1.260       .  A
C342        O343   1.287       .  A
C342       C4194   1.525       .  S
O343       Cr350   2.081       .  S
O344       Cr350   2.026       .  S
O344        C345   1.270       .  A
C345        O346   1.260       .  A
C345       C4207   1.486       .  S
O346       Cr351   1.982       .  S
O347       Cr351   1.967       .  S
O347        C348   1.257       .  A
C348       C4234   1.451       .  S
Cr349       O352   1.776       .  S
Cr350       O352   1.768       .  S
Cr351       O352   1.756       .  S
O353       Cr371   1.953       .  S
O353        C361   1.247       .  A
O354       Cr371   1.996       .  S
O354        C355   1.272       .  A
C355        O356   1.262       .  A
C355       C4184   1.548       .  S
O356       Cr372   2.022       .  S
O357       Cr372   2.038       .  S
O357        C358   1.270       .  A
C358        O359   1.266       .  A
C358       C4164   1.524       .  S
O359       Cr373   1.998       .  S
O360       Cr373   2.012       .  S
O360        C361   1.262       .  A
C361       C4317   1.476       .  S
O362       Cr371   1.991       .  S
O362        C370   1.262       .  A
O363       Cr371   1.984       .  S
O363        C364   1.251       .  A
C364        O365   1.283       .  A
C364       C4144   1.567       .  S
O365       Cr372   2.106       .  S
O366       Cr372   2.020       .  S
O366        C367   1.276       .  A
C367        O368   1.266       .  A
C367       C4154   1.498       .  S
O368       Cr373   1.977       .  S
O369       Cr373   1.962       .  S
O369        C370   1.260       .  A
C370       C4177   1.454       .  S
Cr371       O374   1.780       .  S
Cr372       O374   1.797       .  S
Cr373       O374   1.766       .  S
O375       Cr393   2.027       .  S
O375        C383   1.270       .  A
O376       Cr393   1.931       .  S
O376        C377   1.250       .  A
C377        O378   1.294       .  A
C377       C4187   1.539       .  S
O378       Cr394   2.095       .  S
O379       Cr394   1.967       .  S
O379        C380   1.257       .  A
C380        O381   1.271       .  A
C380       C4114   1.477       .  S
O381       Cr395   2.042       .  S
O382       Cr395   1.957       .  S
O382        C383   1.260       .  A
C383       C4124   1.487       .  S
O384       Cr393   1.968       .  S
O384        C392   1.248       .  A
O385       Cr393   1.993       .  S
O385        C386   1.266       .  A
C386        O387   1.263       .  A
C386       C4097   1.546       .  S
O387       Cr394   2.030       .  S
O388       Cr394   2.094       .  S
O388        C389   1.277       .  A
C389        O390   1.238       .  A
C389       C4104   1.499       .  S
O390       Cr395   1.960       .  S
O391       Cr395   1.986       .  S
O391        C392   1.262       .  A
C392       C4134   1.459       .  S
Cr393       O396   1.761       .  S
Cr394       O396   1.782       .  S
Cr395       O396   1.715       .  S
O397       Cr415   1.964       .  S
O397        C405   1.253       .  A
O398       Cr415   1.997       .  S
O398        C399   1.270       .  A
C399        O400   1.267       .  A
C399       C4084   1.546       .  S
O400       Cr416   2.025       .  S
O401       Cr416   2.037       .  S
O401        C402   1.266       .  A
C402        O403   1.259       .  A
C402       C4634   1.519   1_554  S
O403       Cr417   2.001       .  S
O404       Cr417   2.001       .  S
O404        C405   1.263       .  A
C405       C4067   1.475       .  S
O406       Cr415   1.973       .  S
O406        C414   1.255       .  A
O407       Cr415   2.000       .  S
O407        C408   1.254       .  A
C408        O409   1.278       .  A
C408       C4044   1.533       .  S
O409       Cr416   2.076       .  S
O410       Cr416   2.016       .  S
O410        C411   1.276   1_554  A
C411        O412   1.274   1_556  A
C411       C4057   1.496       .  S
O412       Cr417   2.014       .  S
O413       Cr417   1.955       .  S
O413        C414   1.259       .  A
C414       C4077   1.452   1_455  S
Cr415       O418   1.794       .  S
Cr416       O418   1.791       .  S
Cr417       O418   1.770       .  S
O419       Cr437   1.965       .  S
O419        C427   1.255       .  A
O420       Cr437   1.994       .  S
O420        C421   1.261       .  A
C421        O422   1.262       .  A
C421       C4087   1.556       .  S
O422       Cr438   2.035       .  S
O423       Cr438   2.069       .  S
O423        C424   1.282       .  A
C424        O425   1.260       .  A
C424       C4007   1.504       .  S
O425       Cr439   1.947       .  S
O426       Cr439   1.995       .  S
O426        C427   1.258       .  A
C427       C4037   1.460       .  S
O428       Cr437   1.964       .  S
O428        C436   1.261       .  A
O429       Cr437   1.980       .  S
O429        C430   1.258       .  A
C430        O431   1.293       .  A
C430       C3994   1.545       .  S
O431       Cr438   2.099       .  S
O432       Cr438   2.029       .  S
O432        C433   1.267       .  A
C433        O434   1.255       .  A
C433       C4014   1.489       .  S
O434       Cr439   1.976       .  S
O435       Cr439   1.974       .  S
O435        C436   1.260       .  A
C436       C4027   1.468       .  S
Cr437       O440   1.779       .  S
Cr438       O440   1.771       .  S
Cr439       O440   1.766       .  S
O441       Cr459   2.012       .  S
O441        C449   1.271       .  A
O442       Cr459   1.970       .  S
O442        C443   1.257       .  A
C443        O444   1.298       .  A
C443       C3954   1.542       .  S
O444       Cr460   2.118       .  S
O445       Cr460   2.027       .  S
O445        C446   1.266       .  A
C446        O447   1.259       .  A
C446       C4947   1.495       .  S
O447       Cr461   1.991       .  S
O448       Cr461   1.939       .  S
O448        C449   1.252       .  A
C449       C3967   1.445   1_554  S
O450       Cr459   1.960       .  S
O450        C458   1.250       .  A
O451       Cr459   2.013       .  S
O451        C452   1.267       .  A
C452        O453   1.264       .  A
C452       C3974   1.558       .  S
O453       Cr460   2.031       .  S
O454       Cr460   2.093       .  S
O454        C455   1.289       .  A
C455        O456   1.248       .  A
C455       C3987   1.495       .  S
O456       Cr461   1.941       .  S
O457       Cr461   2.003       .  S
O457        C458   1.257       .  A
C458       C4074   1.463       .  S
Cr459       O462   1.773       .  S
Cr460       O462   1.759       .  S
Cr461       O462   1.752       .  S
O463       Cr481   2.009       .  S
O463        C471   1.272       .  A
O464       Cr481   1.971       .  S
O464        C465   1.255       .  A
C465        O466   1.287       .  A
C465       C3934   1.535       .  S
O466       Cr482   2.085       .  S
O467       Cr482   2.034       .  S
O467        C468   1.267       .  A
C468        O469   1.254       .  A
C468       C4867   1.495       .  S
O469       Cr483   1.992       .  S
O470       Cr483   1.944       .  S
O470        C471   1.257       .  A
C471       C3944   1.449       .  S
O472       Cr481   1.960       .  S
O472        C480   1.251       .  A
O473       Cr481   2.015       .  S
O473        C474   1.268       .  A
C474        O475   1.266       .  A
C474       C3977   1.557       .  S
O475       Cr482   2.025       .  S
O476       Cr482   2.075       .  S
O476        C477   1.284       .  A
C477        O478   1.256       .  A
C477       C4304   1.494       .  S
O478       Cr483   1.936       .  S
O479       Cr483   1.997       .  S
O479        C480   1.256       .  A
C480       C4174   1.457       .  S
Cr481       O484   1.772       .  S
Cr482       O484   1.762       .  S
Cr483       O484   1.764       .  S
O485       Cr503   1.954       .  S
O485        C493   1.249       .  A
O486       Cr503   2.005       .  S
O486        C487   1.267       .  A
C487        O488   1.263       .  A
C487       C3924   1.544       .  S
O488       Cr504   2.022       .  S
O489       Cr504   2.077       .  S
O489        C490   1.282       .  A
C490        O491   1.249       .  A
C490       C3894   1.495       .  S
O491       Cr505   1.949       .  S
O492       Cr505   1.985       .  S
O492        C493   1.257       .  A
C493       C4747   1.448       .  S
O494       Cr503   1.998       .  S
O494        C502   1.267       .  A
O495       Cr503   1.965       .  S
O495        C496   1.255       .  A
C496        O497   1.290       .  A
C496       C3887   1.540       .  S
O497       Cr504   2.095       .  S
O498       Cr504   2.012       .  S
O498        C499   1.265       .  A
C499        O500   1.264       .  A
C499       C3904   1.488       .  S
O500       Cr505   2.003       .  S
O501       Cr505   1.953       .  S
O501        C502   1.257       .  A
C502       C3914   1.447   1_565  S
Cr503       O506   1.768       .  S
Cr504       O506   1.765       .  S
Cr505       O506   1.756       .  S
O507       Cr525   2.004       .  S
O507        C515   1.270       .  A
O508       Cr525   1.976       .  S
O508        C509   1.253       .  A
C509        O510   1.263       .  A
C509       C3927   1.556       .  S
O510       Cr526   2.051       .  S
O511       Cr526   1.998       .  S
O511        C512   1.263       .  A
C512        O513   1.274       .  A
C512       C3854   1.515       .  S
O513       Cr527   2.014       .  S
O514       Cr527   1.978       .  S
O514        C515   1.256       .  A
C515       C3867   1.488       .  S
O516       Cr525   1.933       .  S
O516        C524   1.243       .  A
O517       Cr525   2.006       .  S
O517        C518   1.264       .  A
C518        O519   1.283       .  A
C518       C3847   1.539       .  S
O519       Cr526   2.071       .  S
O520       Cr526   2.027       .  S
O520        C521   1.270       .  A
C521        O522   1.254       .  A
C521       C4004   1.497       .  S
O522       Cr527   1.962       .  S
O523       Cr527   2.019       .  S
O523        C524   1.272       .  A
C524       C3874   1.467       .  S
Cr525       O528   1.802       .  S
Cr526       O528   1.792       .  S
Cr527       O528   1.769       .  S
O529       Cr547   2.003       .  S
O529        C537   1.264       .  A
O530       Cr547   1.928       .  S
O530        C531   1.244       .  A
C531        O532   1.293       .  A
C531       C3837   1.556       .  S
O532       Cr548   2.101       .  S
O533       Cr548   1.998       .  S
O533        C534   1.261       .  A
C534        O535   1.261       .  A
C534       C3817   1.499       .  S
O535       Cr549   2.020       .  S
O536       Cr549   1.966       .  S
O536        C537   1.263       .  A
C537       C4404   1.482       .  S
O538       Cr547   1.974       .  S
O538        C546   1.253       .  A
O539       Cr547   1.976       .  S
O539        C540   1.260       .  A
C540        O541   1.267       .  A
C540       C3794   1.542       .  S
O541       Cr548   2.052       .  S
O542       Cr548   2.073       .  S
O542        C543   1.279       .  A
C543        O544   1.254       .  A
C543       C3807   1.497       .  S
O544       Cr549   1.966       .  S
O545       Cr549   1.991       .  S
O545        C546   1.264       .  A
C546       C3824   1.457       .  S
Cr547       O550   1.782       .  S
Cr548       O550   1.779       .  S
Cr549       O550   1.738       .  S
O551       Cr569   1.952       .  S
O551        C559   1.249       .  A
O552       Cr569   2.000       .  S
O552        C553   1.271       .  A
C553        O554   1.262       .  A
C553       C3834   1.543       .  S
O554       Cr570   2.024       .  S
O555       Cr570   2.028       .  S
O555        C556   1.270       .  A
C556        O557   1.264       .  A
C556       C3754   1.506       .  S
O557       Cr571   1.988       .  S
O558       Cr571   2.008       .  S
O558        C559   1.265       .  A
C559       C3774   1.468       .  S
O560       Cr569   1.987       .  S
O560        C568   1.258       .  A
O561       Cr569   1.976       .  S
O561        C562   1.249       .  A
C562        O563   1.282       .  A
C562       C3747   1.545       .  S
O563       Cr570   2.098       .  S
O564       Cr570   2.018       .  S
O564        C565   1.276       .  A
C565        O566   1.268       .  A
C565       C3764   1.498       .  S
O566       Cr571   2.006       .  S
O567       Cr571   1.954       .  S
O567        C568   1.253       .  A
C568       C3784   1.454       .  S
Cr569       O572   1.771       .  S
Cr570       O572   1.785       .  S
Cr571       O572   1.759       .  S
O573       Cr591   2.016       .  S
O573        C581   1.271       .  A
O574       Cr591   1.974       .  S
O574        C575   1.256       .  A
C575        O576   1.290       .  A
C575       C3694   1.541       .  S
O576       Cr592   2.095       .  S
O577       Cr592   2.011   1_565  S
O577        C578   1.268       .  A
C578        O579   1.257       .  A
C578       C3714   1.477       .  S
O579       Cr593   2.013   1_565  S
O580       Cr593   1.946   1_565  S
O580        C581   1.256   1_565  A
C581       C3704   1.458       .  S
O582       Cr591   1.952       .  S
O582        C590   1.245       .  A
O583       Cr591   2.004       .  S
O583        C584   1.274       .  A
C584        O585   1.269       .  A
C584       C3727   1.559       .  S
O585       Cr592   2.030       .  S
O586       Cr592   2.109   1_565  S
O586        C587   1.277       .  A
C587        O588   1.239   1_565  A
C587       C3734   1.499       .  S
O588       Cr593   1.936       .  S
O589       Cr593   1.991       .  S
O589        C590   1.258       .  A
C590       C3787   1.456       .  S
Cr591       O594   1.760       .  S
Cr592       O594   1.786       .  S
Cr593       O594   1.734       .  S
O595       Cr613   1.960       .  S
O595        C603   1.252       .  A
O596       Cr613   1.995       .  S
O596        C597   1.248       .  A
C597        O598   1.266       .  A
C597       C4377   1.516       .  S
O598       Cr614   2.045       .  S
O599       Cr614   2.041       .  S
O599        C600   1.287       .  A
C600        O601   1.273       .  A
C600       C3654   1.518       .  S
O601       Cr615   2.013       .  S
O602       Cr615   1.947       .  S
O602        C603   1.256       .  A
C603       C3684   1.446       .  S
O604       Cr613   1.947       .  S
O604        C612   1.248       .  A
O605       Cr613   2.010       .  S
O605        C606   1.274       .  A
C606        O607   1.280       .  A
C606       C3724   1.547       .  S
O607       Cr614   2.033       .  S
O608       Cr614   2.007       .  S
O608        C609   1.256       .  A
C609        O610   1.255       .  A
C609       C3664   1.501       .  S
O610       Cr615   1.997       .  S
O611       Cr615   1.973       .  S
O611        C612   1.257       .  A
C612       C3674   1.462       .  S
Cr613       O616   1.792       .  S
Cr614       O616   1.776       .  S
Cr615       O616   1.770       .  S
O617       Cr635   1.989   1_565  S
O617        C625   1.275       .  A
O618       Cr635   1.973       .  S
O618        C619   1.243       .  A
C619        O620   1.255       .  A
C619       C3607   1.544       .  S
O620       Cr636   2.030       .  S
O621       Cr636   2.000       .  S
O621        C622   1.267       .  A
C622        O623   1.264       .  A
C622       C4727   1.472       .  S
O623       Cr637   1.985       .  S
O624       Cr637   1.978       .  S
O624        C625   1.272   1_545  A
C625       C3634   1.483       .  S
O626       Cr635   1.982       .  S
O626        C634   1.243       .  A
O627       Cr635   1.980       .  S
O627        C628   1.274       .  A
C628        O629   1.303       .  A
C628       C3644   1.537       .  S
O629       Cr636   2.089       .  S
O630       Cr636   2.069       .  S
O630        C631   1.262       .  A
C631        O632   1.240       .  A
C631       C3617   1.503       .  S
O632       Cr637   1.941       .  S
O633       Cr637   1.957       .  S
O633        C634   1.242       .  A
C634       C3624   1.451       .  S
Cr635       O638   1.789       .  S
Cr636       O638   1.781       .  S
Cr637       O638   1.734       .  S
O639       Cr657   1.989       .  S
O639        C647   1.262       .  A
O640       Cr657   1.981       .  S
O640        C641   1.251       .  A
C641        O642   1.283       .  A
C641       C3584   1.561       .  S
O642       Cr658   2.087       .  S
O643       Cr658   2.011       .  S
O643        C644   1.270       .  A
C644        O645   1.261       .  A
C644       C4927   1.498       .  S
O645       Cr659   1.971       .  S
O646       Cr659   1.961       .  S
O646        C647   1.257       .  A
C647       C3594   1.458       .  S
O648       Cr657   1.949       .  S
O648        C656   1.246       .  A
O649       Cr657   1.995       .  S
O649        C650   1.269       .  A
C650        O651   1.264       .  A
C650       C3647   1.545       .  S
O651       Cr658   2.019       .  S
O652       Cr658   2.053       .  S
O652        C653   1.273       .  A
C653        O654   1.265       .  A
C653       C4384   1.519       .  S
O654       Cr659   1.998       .  S
O655       Cr659   2.005       .  S
O655        C656   1.261       .  A
C656       C3827   1.465       .  S
Cr657       O660   1.780       .  S
Cr658       O660   1.790       .  S
Cr659       O660   1.763       .  S
O661       Cr679   1.943       .  S
O661        C669   1.242       .  A
O662       Cr679   1.997       .  S
O662        C663   1.269       .  A
C663        O664   1.270       .  A
C663       C3574   1.551       .  S
O664       Cr680   2.042       .  S
O665       Cr680   2.072   1_565  S
O665        C666   1.278       .  A
C666        O667   1.255   1_565  A
C666       C3907   1.508       .  S
O667       Cr681   1.960       .  S
O668       Cr681   2.012       .  S
O668        C669   1.260       .  A
C669       C3564   1.462       .  S
O670       Cr679   1.989       .  S
O670        C678   1.263       .  A
O671       Cr679   1.982       .  S
O671        C672   1.254       .  A
C672        O673   1.288       .  A
C672       C3544   1.539       .  S
O673       Cr680   2.105       .  S
O674       Cr680   2.037   1_565  S
O674        C675   1.276       .  A
C675        O676   1.268       .  A
C675       C3554   1.501       .  S
O676       Cr681   2.010   1_565  S
O677       Cr681   1.924       .  S
O677        C678   1.253       .  A
C678       C3627   1.441   1_554  S
Cr679       O682   1.771       .  S
Cr680       O682   1.775       .  S
Cr681       O682   1.765       .  S
O683       Cr701   1.985       .  S
O683        C691   1.251       .  A
O684       Cr701   1.943       .  S
O684        C685   1.256       .  A
C685        O686   1.295       .  A
C685       C3577   1.549       .  S
O686       Cr702   2.089       .  S
O687       Cr702   1.972       .  S
O687        C688   1.251       .  A
C688        O689   1.253       .  A
C688       C4204   1.482       .  S
O689       Cr703   1.982       .  S
O690       Cr703   1.953       .  S
O690        C691   1.245       .  A
C691       C3524   1.445       .  S
O692       Cr701   1.977       .  S
O692        C700   1.265       .  A
O693       Cr701   2.002       .  S
O693        C694   1.257       .  A
C694        O695   1.259       .  A
C694       C3504   1.534       .  S
O695       Cr702   2.028       .  S
O696       Cr702   2.058       .  S
O696        C697   1.282       .  A
C697        O698   1.256       .  A
C697       C3517   1.514       .  S
O698       Cr703   1.937       .  S
O699       Cr703   2.003       .  S
O699        C700   1.268       .  A
C700       C3537   1.460       .  S
Cr701       O704   1.811       .  S
Cr702       O704   1.774       .  S
Cr703       O704   1.760       .  S
O705       Cr723   1.958       .  S
O705        C713   1.246       .  A
O706       Cr723   2.003       .  S
O706        C707   1.271       .  A
C707        O708   1.259       .  A
C707       C3497   1.547       .  S
O708       Cr724   2.006       .  S
O709       Cr724   2.073       .  S
O709        C710   1.281       .  A
C710        O711   1.261       .  A
C710       C4264   1.520   1_455  S
O711       Cr725   1.982       .  S
O712       Cr725   2.054       .  S
O712        C713   1.272       .  A
C713       C3464   1.487       .  S
O714       Cr723   1.997       .  S
O714        C722   1.263       .  A
O715       Cr723   1.967       .  S
O715        C716   1.252       .  A
C716        O717   1.288       .  A
C716       C3457   1.547       .  S
O717       Cr724   2.102       .  S
O718       Cr724   1.984   1_655  S
O718        C719   1.261       .  A
C719        O720   1.274       .  A
C719       C3477   1.486       .  S
O720       Cr725   2.034   1_655  S
O721       Cr725   1.963       .  S
O721        C722   1.256       .  A
C722       C3487   1.465   1_545  S
Cr723       O726   1.772       .  S
Cr724       O726   1.783       .  S
Cr725       O726   1.761       .  S
O727       Cr745   1.951       .  S
O727        C735   1.255       .  A
O728       Cr745   1.978       .  S
O728        C729   1.246       .  A
C729        O730   1.256       .  A
C729       C3494   1.535       .  S
O730       Cr746   2.040       .  S
O731       Cr746   2.031       .  S
O731        C732   1.275       .  A
C732        O733   1.268       .  A
C732       C4607   1.499       .  S
O733       Cr747   1.991       .  S
O734       Cr747   1.984       .  S
O734        C735   1.263       .  A
C735       C3444   1.444       .  S
O736       Cr745   1.971       .  S
O736        C744   1.253       .  A
O737       Cr745   1.925       .  S
O737        C738   1.250       .  A
C738        O739   1.297       .  A
C738       C3424   1.541       .  S
O739       Cr746   2.106       .  S
O740       Cr746   2.005       .  S
O740        C741   1.263       .  A
C741        O742   1.256       .  A
C741       C3437   1.483       .  S
O742       Cr747   1.962       .  S
O743       Cr747   2.009       .  S
O743        C744   1.266       .  A
C744       C3677   1.482       .  S
Cr745       O748   1.782       .  S
Cr746       O748   1.770       .  S
Cr747       O748   1.762       .  S
O749       Cr767   1.977       .  S
O749        C757   1.261   1_455  A
O750       Cr767   1.966       .  S
O750        C751   1.253       .  A
C751        O752   1.287       .  A
C751       C3384   1.554       .  S
O752       Cr768   2.072       .  S
O753       Cr768   1.999       .  S
O753        C754   1.259       .  A
C754        O755   1.255       .  A
C754       C4787   1.473       .  S
O755       Cr769   1.966       .  S
O756       Cr769   1.979   1_655  S
O756        C757   1.265       .  A
C757       C3394   1.464       .  S
O758       Cr767   1.977       .  S
O758        C766   1.257       .  A
O759       Cr767   1.991       .  S
O759        C760   1.261       .  A
C760        O761   1.258       .  A
C760       C3404   1.520       .  S
O761       Cr768   2.024       .  S
O762       Cr768   2.034       .  S
O762        C763   1.272       .  A
C763        O764   1.268       .  A
C763       C3417   1.496       .  S
O764       Cr769   1.971       .  S
O765       Cr769   1.989       .  S
O765        C766   1.256       .  A
C766       C3484   1.482       .  S
Cr767       O770   1.791       .  S
Cr768       O770   1.782       .  S
Cr769       O770   1.758       .  S
O771       Cr789   1.979       .  S
O771        C779   1.260       .  A
O772       Cr789   2.021       .  S
O772        C773   1.263       .  A
C773        O774   1.266       .  A
C773       C3354   1.549       .  S
O774       Cr790   2.046       .  S
O775       Cr790   2.084       .  S
O775        C776   1.284       .  A
C776        O777   1.246       .  A
C776       C4707   1.513       .  S
O777       Cr791   1.957       .  S
O778       Cr791   1.963       .  S
O778        C779   1.259       .  A
C779       C3374   1.461       .  S
O780       Cr789   1.981       .  S
O780        C788   1.259       .  A
O781       Cr789   1.951       .  S
O781        C782   1.253       .  A
C782        O783   1.296       .  A
C782       C3407   1.532       .  S
O783       Cr790   2.082       .  S
O784       Cr790   1.978       .  S
O784        C785   1.252       .  A
C785        O786   1.276       .  A
C785       C4477   1.510       .  S
O786       Cr791   2.066       .  S
O787       Cr791   2.020       .  S
O787        C788   1.279       .  A
C788       C3364   1.507       .  S
Cr789       O792   1.796       .  S
Cr790       O792   1.782       .  S
Cr791       O792   1.753       .  S
O793       Cr811   2.021       .  S
O793        C801   1.261       .  A
O794       Cr811   1.958       .  S
O794        C795   1.256       .  A
C795        O796   1.289       .  A
C795       C3324   1.537       .  S
O796       Cr812   2.080       .  S
O797       Cr812   1.984       .  S
O797        C798   1.256       .  A
C798        O799   1.273       .  A
C798       C3304   1.492       .  S
O799       Cr813   2.022       .  S
O800       Cr813   1.940       .  S
O800        C801   1.250       .  A
C801       C3317   1.472       .  S
O802       Cr811   1.958   1_554  S
O802        C810   1.251       .  A
O803       Cr811   2.012       .  S
O803        C804   1.267       .  A
C804        O805   1.269       .  A
C804       C3547   1.564       .  S
O805       Cr812   2.047       .  S
O806       Cr812   2.056   1_565  S
O806        C807   1.275       .  A
C807        O808   1.255       .  A
C807       C3344   1.492       .  S
O808       Cr813   1.963   1_565  S
O809       Cr813   2.026   1_554  S
O809        C810   1.272       .  A
C810       C3337   1.465       .  S
Cr811       O814   1.781       .  S
Cr812       O814   1.774       .  S
Cr813       O814   1.750       .  S
O815       Cr833   1.974       .  S
O815        C823   1.245       .  A
O816       Cr833   2.010       .  S
O816        C817   1.271       .  A
C817        O818   1.268       .  A
C817       C3327   1.547       .  S
O818       Cr834   2.025       .  S
O819       Cr834   2.084       .  S
O819        C820   1.279       .  A
C820        O821   1.254       .  A
C820       C3804   1.498       .  S
O821       Cr835   1.940       .  S
O822       Cr835   1.990       .  S
O822        C823   1.254       .  A
C823       C3597   1.456       .  S
O824       Cr833   2.045       .  S
O824        C832   1.277       .  A
O825       Cr833   1.980       .  S
O825        C826   1.261       .  A
C826        O827   1.288       .  A
C826       C4564   1.544       .  S
O827       Cr834   2.090       .  S
O828       Cr834   2.040       .  S
O828        C829   1.274       .  A
C829        O830   1.250       .  A
C829       C3294   1.484       .  S
O830       Cr835   1.963       .  S
O831       Cr835   1.939       .  S
O831        C832   1.250       .  A
C832       C4917   1.474       .  S
Cr833       O836   1.770       .  S
Cr834       O836   1.771       .  S
Cr835       O836   1.732       .  S
O837       Cr855   1.950       .  S
O837        C845   1.245       .  A
O838       Cr855   2.023       .  S
O838        C839   1.268       .  A
C839        O840   1.271       .  A
C839       C3357   1.569       .  S
O840       Cr856   2.056       .  S
O841       Cr856   2.071       .  S
O841        C842   1.280       .  A
C842        O843   1.251       .  A
C842       C3667   1.488       .  S
O843       Cr857   1.939       .  S
O844       Cr857   1.980       .  S
O844        C845   1.262       .  A
C845       C3447   1.436       .  S
O846       Cr855   2.020       .  S
O846        C854   1.266       .  A
O847       Cr855   1.962       .  S
O847        C848   1.255       .  A
C848        O849   1.293       .  A
C848       C3284   1.546       .  S
O849       Cr856   2.095       .  S
O850       Cr856   1.999       .  S
O850        C851   1.260       .  A
C851        O852   1.265       .  A
C851       C3277   1.497       .  S
O852       Cr857   2.016       .  S
O853       Cr857   1.939       .  S
O853        C854   1.255       .  A
C854       C4594   1.467       .  S
Cr855       O858   1.778       .  S
Cr856       O858   1.759       .  S
Cr857       O858   1.761       .  S
O859       Cr877   2.002       .  S
O859        C867   1.267       .  A
O860       Cr877   2.001       .  S
O860        C861   1.256       .  A
C861        O862   1.281       .  A
C861       C4937   1.543       .  S
O862       Cr878   2.084       .  S
O863       Cr878   2.072   1_554  S
O863        C864   1.278       .  A
C864        O865   1.244       .  A
C864       C3267   1.515       .  S
O865       Cr879   1.972   1_554  S
O866       Cr879   1.963       .  S
O866        C867   1.258       .  A
C867       C3314   1.463   1_455  S
O868       Cr877   1.953       .  S
O868        C876   1.247       .  A
O869       Cr877   2.013       .  S
O869        C870   1.275       .  A
C870        O871   1.275       .  A
C870       C3287   1.565       .  S
O871       Cr878   2.045       .  S
O872       Cr878   2.060       .  S
O872        C873   1.277       .  A
C873        O874   1.268       .  A
C873       C3244   1.509   1_556  S
O874       Cr879   1.990       .  S
O875       Cr879   2.002       .  S
O875        C876   1.258       .  A
C876       C3254   1.461       .  S
Cr877       O880   1.780       .  S
Cr878       O880   1.779       .  S
Cr879       O880   1.762       .  S
O881       Cr899   1.963       .  S
O881        C889   1.255       .  A
O882       Cr899   2.000       .  S
O882        C883   1.263       .  A
C883        O884   1.262       .  A
C883       C3214   1.534       .  S
O884       Cr900   2.042       .  S
O885       Cr900   2.029   1_556  S
O885        C886   1.269       .  A
C886        O887   1.262   1_556  A
C886       C3347   1.485       .  S
O887       Cr901   1.975       .  S
O888       Cr901   1.994       .  S
O888        C889   1.262       .  A
C889       C3207   1.473       .  S
O890       Cr899   1.981       .  S
O890        C898   1.259   1_655  A
O891       Cr899   1.972       .  S
O891        C892   1.255       .  A
C892        O893   1.289       .  A
C892       C4047   1.561       .  S
O893       Cr900   2.089       .  S
O894       Cr900   2.015   1_556  S
O894        C895   1.268       .  A
C895        O896   1.259       .  A
C895       C3234   1.482       .  S
O896       Cr901   1.978   1_556  S
O897       Cr901   1.978       .  S
O897        C898   1.263   1_655  A
C898       C3224   1.471       .  S
Cr899       O902   1.789       .  S
Cr900       O902   1.781       .  S
Cr901       O902   1.766       .  S
O903       Cr921   1.958       .  S
O903        C911   1.254       .  A
O904       Cr921   1.996       .  S
O904        C905   1.256       .  A
C905        O906   1.263       .  A
C905       C3217   1.530       .  S
O906       Cr922   2.041       .  S
O907       Cr922   2.011       .  S
O907        C908   1.270       .  A
C908        O909   1.273       .  A
C908       C4157   1.491       .  S
O909       Cr923   2.004       .  S
O910       Cr923   1.986       .  S
O910        C911   1.254       .  A
C911       C3947   1.472       .  S
O912       Cr921   1.954       .  S
O912        C920   1.258       .  A
O913       Cr921   1.953       .  S
O913        C914   1.255       .  A
C914        O915   1.285       .  A
C914       C4197   1.529       .  S
O915       Cr922   2.074       .  S
O916       Cr922   2.006       .  S
O916        C917   1.261       .  A
C917        O918   1.252       .  A
C917       C3194   1.481       .  S
O918       Cr923   1.968       .  S
O919       Cr923   2.005       .  S
O919        C920   1.267       .  A
C920       C4857   1.481       .  S
Cr921       O924   1.788       .  S
Cr922       O924   1.778       .  S
Cr923       O924   1.778       .  S
O925       Cr943   2.009       .  S
O925        C933   1.270       .  A
O926       Cr943   1.953       .  S
O926        C927   1.253       .  A
C927        O928   1.296       .  A
C927       C3587   1.533       .  S
O928       Cr944   2.109       .  S
O929       Cr944   2.042       .  S
O929        C930   1.267       .  A
C930        O931   1.250       .  A
C930       C3184   1.497       .  S
O931       Cr945   1.969       .  S
O932       Cr945   1.947       .  S
O932        C933   1.254       .  A
C933       C3527   1.443       .  S
O934       Cr943   1.967       .  S
O934        C942   1.250       .  A
O935       Cr943   2.005       .  S
O935        C936   1.264       .  A
C936        O937   1.268       .  A
C936       C3167   1.546       .  S
O937       Cr944   2.032       .  S
O938       Cr944   2.099       .  S
O938        C939   1.288       .  A
C939        O940   1.254       .  A
C939       C3174   1.509       .  S
O940       Cr945   1.959       .  S
O941       Cr945   1.985       .  S
O941        C942   1.250       .  A
C942       C4237   1.454       .  S
Cr943       O946   1.783       .  S
Cr944       O946   1.769       .  S
Cr945       O946   1.743       .  S
O947       Cr965   2.003       .  S
O947        C955   1.266       .  A
O948       Cr965   1.975       .  S
O948        C949   1.253       .  A
C949        O950   1.287       .  A
C949       C4777   1.533       .  S
O950       Cr966   2.094       .  S
O951       Cr966   2.034   1_455  S
O951        C952   1.273       .  A
C952        O953   1.267       .  A
C952       C3157   1.515       .  S
O953       Cr967   2.013   1_455  S
O954       Cr967   1.952       .  S
O954        C955   1.257       .  A
C955       C3204   1.460   1_545  S
O956       Cr965   1.968       .  S
O956        C964   1.247       .  A
O957       Cr965   1.999       .  S
O957        C958   1.272       .  A
C958        O959   1.267       .  A
C958       C3164   1.548       .  S
O959       Cr966   2.022       .  S
O960       Cr966   2.092   1_455  S
O960        C961   1.279   1_455  A
C961        O962   1.251       .  A
C961       C3264   1.512   1_655  S
O962       Cr967   1.978       .  S
O963       Cr967   1.982       .  S
O963        C964   1.252       .  A
C964       C3334   1.463       .  S
Cr965       O968   1.787       .  S
Cr966       O968   1.791       .  S
Cr967       O968   1.741       .  S
O969       Cr987   2.007       .  S
O969        C977   1.247       .  A
O970       Cr987   1.922       .  S
O970        C971   1.261       .  A
C971        O972   1.307       .  A
C971       C3147   1.543       .  S
O972       Cr988   2.117       .  S
O973       Cr988   2.011       .  S
O973        C974   1.261       .  A
C974        O975   1.256       .  A
C974       C3237   1.503   1_455  S
O975       Cr989   1.988       .  S
O976       Cr989   1.960       .  S
O976        C977   1.239       .  A
C977       C3134   1.454       .  S
O978       Cr987   1.957       .  S
O978        C986   1.263   1_565  A
O979       Cr987   1.981       .  S
O979        C980   1.248       .  A
C980        O981   1.257       .  A
C980       C3454   1.544       .  S
O981       Cr988   2.051       .  S
O982       Cr988   2.046   1_655  S
O982        C983   1.281       .  A
C983        O984   1.254       .  A
C983       C3307   1.505       .  S
O984       Cr989   1.942   1_655  S
O985       Cr989   2.042       .  S
O985        C986   1.282   1_565  A
C986       C3257   1.459       .  S
Cr987       O990   1.802       .  S
Cr988       O990   1.754       .  S
Cr989       O990   1.739       .  S
O991      Cr1009   1.960       .  S
O991        C999   1.253       .  A
O992      Cr1009   1.996       .  S
O992        C993   1.261       .  A
C993        O994   1.260       .  A
C993       C3144   1.547       .  S
O994      Cr1010   2.037       .  S
O995      Cr1010   2.055       .  S
O995        C996   1.278       .  A
C996        O997   1.262       .  A
C996       C3114   1.501       .  S
O997      Cr1011   1.967       .  S
O998      Cr1011   1.988       .  S
O998        C999   1.258       .  A
C999       C3377   1.454       .  S
O1000     Cr1009   1.989       .  S
O1000      C1008   1.263       .  A
O1001     Cr1009   1.956       .  S
O1001      C1002   1.251       .  A
C1002      O1003   1.291       .  A
C1002      C3844   1.552       .  S
O1003     Cr1010   2.102       .  S
O1004     Cr1010   2.023       .  S
O1004      C1005   1.269       .  A
C1005      O1006   1.259       .  A
C1005      C3127   1.493       .  S
O1006     Cr1011   1.986       .  S
O1007     Cr1011   1.989       .  S
O1007      C1008   1.267       .  A
C1008      C4694   1.463       .  S
Cr1009     O1012   1.771       .  S
Cr1010     O1012   1.775       .  S
Cr1011     O1012   1.759       .  S
O1013     Cr1031   2.020       .  S
O1013      C1021   1.267       .  A
O1014     Cr1031   1.972       .  S
O1014      C1015   1.254       .  A
C1015      O1016   1.287       .  A
C1015      C3937   1.525       .  S
O1016     Cr1032   2.087       .  S
O1017     Cr1032   2.013       .  S
O1017      C1018   1.272       .  A
C1018      O1019   1.263       .  A
C1018      C3104   1.491       .  S
O1019     Cr1033   2.006       .  S
O1020     Cr1033   1.952       .  S
O1020      C1021   1.253       .  A
C1021      C4034   1.463       .  S
O1022     Cr1031   1.921       .  S
O1022      C1030   1.237       .  A
O1023     Cr1031   2.018       .  S
O1023      C1024   1.275       .  A
C1024      O1025   1.269       .  A
C1024      C3094   1.564       .  S
O1025     Cr1032   2.034       .  S
O1026     Cr1032   2.059       .  S
O1026      C1027   1.270       .  A
C1027      O1028   1.248       .  A
C1027      C3087   1.495       .  S
O1028     Cr1033   1.963       .  S
O1029     Cr1033   1.986       .  S
O1029      C1030   1.260       .  A
C1030      C3877   1.437       .  S
Cr1031     O1034   1.789       .  S
Cr1032     O1034   1.784       .  S
Cr1033     O1034   1.752       .  S
O1035     Cr1053   2.019       .  S
O1035      C1043   1.272       .  A
O1036     Cr1053   1.967       .  S
O1036      C1037   1.255       .  A
C1037      O1038   1.295       .  A
C1037      C4717   1.553       .  S
O1038     Cr1054   2.118       .  S
O1039     Cr1054   2.021   1_545  S
O1039      C1040   1.270       .  A
C1040      O1041   1.257       .  A
C1040      C3247   1.484       .  S
O1041     Cr1055   1.988   1_545  S
O1042     Cr1055   1.949       .  S
O1042      C1043   1.255       .  A
C1043      C3137   1.453   1_554  S
O1044     Cr1053   1.951       .  S
O1044      C1052   1.240       .  A
O1045     Cr1053   2.009       .  S
O1045      C1046   1.274       .  A
C1046      O1047   1.269       .  A
C1046      C3097   1.570       .  S
O1047     Cr1054   2.039       .  S
O1048     Cr1054   2.104   1_545  S
O1048      C1049   1.281       .  A
C1049      O1050   1.249   1_545  A
C1049      C3154   1.509       .  S
O1050     Cr1055   1.947       .  S
O1051     Cr1055   1.992       .  S
O1051      C1052   1.253       .  A
C1052      C3227   1.449       .  S
Cr1053     O1056   1.772       .  S
Cr1054     O1056   1.774       .  S
Cr1055     O1056   1.736       .  S
O1057     Cr1075   2.013       .  S
O1057      C1065   1.263       .  A
O1058     Cr1075   1.972       .  S
O1058      C1059   1.261       .  A
C1059      O1060   1.292       .  A
C1059      C3074   1.558       .  S
O1060     Cr1076   2.094       .  S
O1061     Cr1076   2.009       .  S
O1061      C1062   1.259       .  A
C1062      O1063   1.252       .  A
C1062      C3434   1.488       .  S
O1063     Cr1077   1.981       .  S
O1064     Cr1077   1.950       .  S
O1064      C1065   1.256       .  A
C1065      C3687   1.479       .  S
O1066     Cr1075   1.987       .  S
O1066      C1074   1.260       .  A
O1067     Cr1075   2.015       .  S
O1067      C1068   1.262       .  A
C1068      O1069   1.266       .  A
C1068      C3054   1.566       .  S
O1069     Cr1076   2.047       .  S
O1070     Cr1076   2.069       .  S
O1070      C1071   1.284       .  A
C1071      O1072   1.256       .  A
C1071      C4574   1.485       .  S
O1072     Cr1077   1.921       .  S
O1073     Cr1077   1.978       .  S
O1073      C1074   1.261       .  A
C1074      C3064   1.478       .  S
Cr1075     O1078   1.780       .  S
Cr1076     O1078   1.763       .  S
Cr1077     O1078   1.761       .  S
O1079     Cr1097   1.981       .  S
O1079      C1087   1.249       .  A
O1080     Cr1097   1.991       .  S
O1080      C1081   1.264       .  A
C1081      O1082   1.271       .  A
C1081      C3077   1.563       .  S
O1082     Cr1098   2.059       .  S
O1083     Cr1098   2.043       .  S
O1083      C1084   1.269       .  A
C1084      O1085   1.257       .  A
C1084      C3034   1.500       .  S
O1085     Cr1099   1.952       .  S
O1086     Cr1099   1.982       .  S
O1086      C1087   1.256       .  A
C1087      C4527   1.462       .  S
O1088     Cr1097   2.006       .  S
O1088      C1096   1.262       .  A
O1089     Cr1097   1.997       .  S
O1089      C1090   1.264       .  A
C1090      O1091   1.286       .  A
C1090      C3744   1.542       .  S
O1091     Cr1098   2.084       .  S
O1092     Cr1098   2.030       .  S
O1092      C1093   1.273       .  A
C1093      O1094   1.257       .  A
C1093      C3044   1.497       .  S
O1094     Cr1099   1.971       .  S
O1095     Cr1099   1.936       .  S
O1095      C1096   1.254       .  A
C1096      C4447   1.452       .  S
Cr1097     O1100   1.790       .  S
Cr1098     O1100   1.779       .  S
Cr1099     O1100   1.752       .  S
O1101     Cr1119   1.945       .  S
O1101      C1109   1.243       .  A
O1102     Cr1119   2.014       .  S
O1102      C1103   1.271       .  A
C1103      O1104   1.274       .  A
C1103      C3027   1.557       .  S
O1104     Cr1120   2.049       .  S
O1105     Cr1120   2.063       .  S
O1105      C1106   1.278       .  A
C1106      O1107   1.262       .  A
C1106      C4017   1.507       .  S
O1107     Cr1121   1.982       .  S
O1108     Cr1121   1.987       .  S
O1108      C1109   1.254       .  A
C1109      C3017   1.446       .  S
O1110     Cr1119   1.998       .  S
O1110      C1118   1.267       .  A
O1111     Cr1119   1.980       .  S
O1111      C1112   1.253       .  A
C1112      O1113   1.284       .  A
C1112      C2994   1.534       .  S
O1113     Cr1120   2.096       .  S
O1114     Cr1120   2.048       .  S
O1114      C1115   1.277       .  A
C1115      O1116   1.260       .  A
C1115      C3857   1.495       .  S
O1116     Cr1121   1.988       .  S
O1117     Cr1121   1.947       .  S
O1117      C1118   1.257       .  A
C1118      C3004   1.456       .  S
Cr1119     O1122   1.774       .  S
Cr1120     O1122   1.767       .  S
Cr1121     O1122   1.774       .  S
O1123     Cr1141   2.029       .  S
O1123      C1131   1.268       .  A
O1124     Cr1141   1.947       .  S
O1124      C1125   1.253       .  A
C1125      O1126   1.294       .  A
C1125      C3024   1.547       .  S
O1126     Cr1142   2.099       .  S
O1127     Cr1142   1.982       .  S
O1127      C1128   1.259       .  A
C1128      O1129   1.270       .  A
C1128      C2984   1.488       .  S
O1129     Cr1143   2.034       .  S
O1130     Cr1143   1.939       .  S
O1130      C1131   1.260       .  A
C1131      C4347   1.472       .  S
O1132     Cr1141   1.955       .  S
O1132      C1140   1.246       .  A
O1133     Cr1141   2.011       .  S
O1133      C1134   1.270       .  A
C1134      O1135   1.267       .  A
C1134      C2974   1.570       .  S
O1135     Cr1142   2.046       .  S
O1136     Cr1142   2.081       .  S
O1136      C1137   1.277       .  A
C1137      O1138   1.244       .  A
C1137      C3037   1.503       .  S
O1138     Cr1143   1.953       .  S
O1139     Cr1143   1.988       .  S
O1139      C1140   1.263       .  A
C1140      C4547   1.442       .  S
Cr1141     O1144   1.780       .  S
Cr1142     O1144   1.777       .  S
Cr1143     O1144   1.735       .  S
O1145     Cr1163   1.982       .  S
O1145      C1153   1.255       .  A
O1146     Cr1163   1.977       .  S
O1146      C1147   1.257       .  A
C1147      O1148   1.290       .  A
C1147      C2927   1.557       .  S
O1148     Cr1164   2.087       .  S
O1149     Cr1164   2.002       .  S
O1149      C1150   1.261   1_554  A
C1150      O1151   1.265   1_556  A
C1150      C2944   1.496       .  S
O1151     Cr1165   2.001       .  S
O1152     Cr1165   2.009       .  S
O1152      C1153   1.270       .  A
C1153      C2934   1.479       .  S
O1154     Cr1163   1.971       .  S
O1154      C1162   1.257       .  A
O1155     Cr1163   1.989       .  S
O1155      C1156   1.258       .  A
C1156      O1157   1.255       .  A
C1156      C2957   1.549       .  S
O1157     Cr1164   2.025       .  S
O1158     Cr1164   2.026       .  S
O1158      C1159   1.274       .  A
C1159      O1160   1.269       .  A
C1159      C2964   1.515       .  S
O1160     Cr1165   2.003       .  S
O1161     Cr1165   2.008       .  S
O1161      C1162   1.266       .  A
C1162      C4137   1.470       .  S
Cr1163     O1166   1.788       .  S
Cr1164     O1166   1.780       .  S
Cr1165     O1166   1.763       .  S
O1167     Cr1185   2.000       .  S
O1167      C1175   1.264       .  A
O1168     Cr1185   1.984       .  S
O1168      C1169   1.256       .  A
C1169      O1170   1.283       .  A
C1169      C4294   1.534       .  S
O1170     Cr1186   2.088       .  S
O1171     Cr1186   1.990       .  S
O1171      C1172   1.267       .  A
C1172      O1173   1.274       .  A
C1172      C2904   1.482       .  S
O1173     Cr1187   2.018       .  S
O1174     Cr1187   1.959       .  S
O1174      C1175   1.256       .  A
C1175      C2914   1.470       .  S
O1176     Cr1185   1.924       .  S
O1176      C1184   1.242       .  A
O1177     Cr1185   2.009       .  S
O1177      C1178   1.272       .  A
C1178      O1179   1.270       .  A
C1178      C2954   1.541       .  S
O1179     Cr1186   2.023       .  S
O1180     Cr1186   2.064       .  S
O1180      C1181   1.273       .  A
C1181      O1182   1.257       .  A
C1181      C3187   1.511       .  S
O1182     Cr1187   1.990       .  S
O1183     Cr1187   2.028       .  S
O1183      C1184   1.267       .  A
C1184      C3534   1.465       .  S
Cr1185     O1188   1.775       .  S
Cr1186     O1188   1.782       .  S
Cr1187     O1188   1.771       .  S
O1189     Cr1207   1.969       .  S
O1189      C1197   1.261       .  A
O1190     Cr1207   1.979       .  S
O1190      C1191   1.254       .  A
C1191      O1192   1.290       .  A
C1191      C2847   1.536       .  S
O1192     Cr1208   2.103       .  S
O1193     Cr1208   2.028       .  S
O1193      C1194   1.274       .  A
C1194      O1195   1.265       .  A
C1194      C2857   1.496       .  S
O1195     Cr1209   1.999       .  S
O1196     Cr1209   1.973       .  S
O1196      C1197   1.261       .  A
C1197      C2884   1.453       .  S
O1198     Cr1207   1.928       .  S
O1198      C1206   1.243       .  A
O1199     Cr1207   2.004       .  S
O1199      C1200   1.268       .  A
C1200      O1201   1.268       .  A
C1200      C2897   1.561       .  S
O1201     Cr1208   2.052       .  S
O1202     Cr1208   2.061       .  S
O1202      C1203   1.276       .  A
C1203      O1204   1.260       .  A
C1203      C2864   1.502       .  S
O1204     Cr1209   1.967       .  S
O1205     Cr1209   2.006       .  S
O1205      C1206   1.259       .  A
C1206      C2874   1.440       .  S
Cr1207     O1210   1.765       .  S
Cr1208     O1210   1.765       .  S
Cr1209     O1210   1.774       .  S
O1211     Cr1229   1.980       .  S
O1211      C1219   1.257       .  A
O1212     Cr1229   1.997       .  S
O1212      C1213   1.265       .  A
C1213      O1214   1.266       .  A
C1213      C2834   1.560       .  S
O1214     Cr1230   2.040       .  S
O1215     Cr1230   2.065       .  S
O1215      C1216   1.276   1_455  A
C1216      O1217   1.256   1_655  A
C1216      C3984   1.510       .  S
O1217     Cr1231   1.972       .  S
O1218     Cr1231   1.985       .  S
O1218      C1219   1.262       .  A
C1219      C4064   1.464       .  S
O1220     Cr1229   1.980       .  S
O1220      C1228   1.255       .  A
O1221     Cr1229   1.983       .  S
O1221      C1222   1.256       .  A
C1222      O1223   1.291       .  A
C1222      C2894   1.558       .  S
O1223     Cr1230   2.095       .  S
O1224     Cr1230   1.984       .  S
O1224      C1225   1.259       .  A
C1225      O1226   1.270       .  A
C1225      C4977   1.492       .  S
O1226     Cr1231   2.018       .  S
O1227     Cr1231   1.952       .  S
O1227      C1228   1.256       .  A
C1228      C4647   1.455       .  S
Cr1229     O1232   1.796       .  S
Cr1230     O1232   1.781       .  S
Cr1231     O1232   1.762       .  S
O1233     Cr1251   1.947       .  S
O1233      C1241   1.246       .  A
O1234     Cr1251   2.010       .  S
O1234      C1235   1.275       .  A
C1235      O1236   1.273       .  A
C1235      C2824   1.556       .  S
O1236     Cr1252   2.037       .  S
O1237     Cr1252   2.058       .  S
O1237      C1238   1.264       .  A
C1238      O1239   1.247       .  A
C1238      C4107   1.487       .  S
O1239     Cr1253   1.960       .  S
O1240     Cr1253   1.976       .  S
O1240      C1241   1.255       .  A
C1241      C2937   1.454       .  S
O1242     Cr1251   1.990       .  S
O1242      C1250   1.262       .  A
O1243     Cr1251   1.976       .  S
O1243      C1244   1.253       .  A
C1244      O1245   1.276       .  A
C1244      C4617   1.537       .  S
O1245     Cr1252   2.065       .  S
O1246     Cr1252   2.027       .  S
O1246      C1247   1.276       .  A
C1247      O1248   1.262       .  A
C1247      C2804   1.489       .  S
O1248     Cr1253   2.000       .  S
O1249     Cr1253   1.951       .  S
O1249      C1250   1.257       .  A
C1250      C2814   1.454   1_554  S
Cr1251     O1254   1.769       .  S
Cr1252     O1254   1.791       .  S
Cr1253     O1254   1.743       .  S
O1255     Cr1273   1.979       .  S
O1255      C1263   1.258       .  A
O1256     Cr1273   1.954       .  S
O1256      C1257   1.254       .  A
C1257      O1258   1.290       .  A
C1257      C2827   1.538       .  S
O1258     Cr1274   2.097       .  S
O1259     Cr1274   1.996       .  S
O1259      C1260   1.260       .  A
C1260      O1261   1.271       .  A
C1260      C2794   1.504       .  S
O1261     Cr1275   2.034       .  S
O1262     Cr1275   1.962       .  S
O1262      C1263   1.256       .  A
C1263      C2887   1.453       .  S
O1264     Cr1273   1.966       .  S
O1264      C1272   1.254       .  A
O1265     Cr1273   2.007       .  S
O1265      C1266   1.261       .  A
C1266      O1267   1.265       .  A
C1266      C3507   1.553       .  S
O1267     Cr1274   2.045       .  S
O1268     Cr1274   2.066       .  S
O1268      C1269   1.279       .  A
C1269      O1270   1.253       .  A
C1269      C2777   1.492       .  S
O1270     Cr1275   1.941       .  S
O1271     Cr1275   2.029       .  S
O1271      C1272   1.270       .  A
C1272      C2787   1.469       .  S
Cr1273     O1276   1.770       .  S
Cr1274     O1276   1.769       .  S
Cr1275     O1276   1.771       .  S
O1277     Cr1295   2.016       .  S
O1277      C1285   1.272       .  A
O1278     Cr1295   1.939       .  S
O1278      C1279   1.249       .  A
C1279      O1280   1.297       .  A
C1279      C4507   1.537       .  S
O1280     Cr1296   2.122       .  S
O1281     Cr1296   2.028       .  S
O1281      C1282   1.266       .  A
C1282      O1283   1.252       .  A
C1282      C2744   1.485       .  S
O1283     Cr1297   1.984       .  S
O1284     Cr1297   1.944       .  S
O1284      C1285   1.256       .  A
C1285      C2754   1.448       .  S
O1286     Cr1295   1.951       .  S
O1286      C1294   1.247       .  A
O1287     Cr1295   2.004       .  S
O1287      C1288   1.267       .  A
C1288      O1289   1.263       .  A
C1288      C2764   1.541       .  S
O1289     Cr1296   2.033       .  S
O1290     Cr1296   2.095       .  S
O1290      C1291   1.290       .  A
C1291      O1292   1.254       .  A
C1291      C2947   1.498       .  S
O1292     Cr1297   1.911       .  S
O1293     Cr1297   1.999       .  S
O1293      C1294   1.257       .  A
C1294      C2817   1.459       .  S
Cr1295     O1298   1.761       .  S
Cr1296     O1298   1.760       .  S
Cr1297     O1298   1.756       .  S
O1299     Cr1317   1.972       .  S
O1299      C1307   1.254       .  A
O1300     Cr1317   2.003       .  S
O1300      C1301   1.262       .  A
C1301      O1302   1.270       .  A
C1301      C2844   1.553       .  S
O1302     Cr1318   2.055       .  S
O1303     Cr1318   2.061       .  S
O1303      C1304   1.277       .  A
C1304      O1305   1.246       .  A
C1304      C3274   1.515       .  S
O1305     Cr1319   1.939       .  S
O1306     Cr1319   1.991       .  S
O1306      C1307   1.265       .  A
C1307      C4587   1.455       .  S
O1308     Cr1317   1.988       .  S
O1308      C1316   1.253       .  A
O1309     Cr1317   1.980       .  S
O1309      C1310   1.262       .  A
C1310      O1311   1.291       .  A
C1310      C2767   1.550       .  S
O1311     Cr1318   2.079       .  S
O1312     Cr1318   2.004       .  S
O1312      C1313   1.262       .  A
C1313      O1314   1.270       .  A
C1313      C3657   1.510       .  S
O1314     Cr1319   2.015       .  S
O1315     Cr1319   1.951       .  S
O1315      C1316   1.257       .  A
C1316      C3067   1.457       .  S
Cr1317     O1320   1.794       .  S
Cr1318     O1320   1.774       .  S
Cr1319     O1320   1.754       .  S
O1321     Cr1339   1.953       .  S
O1321      C1329   1.257       .  A
O1322     Cr1339   1.987       .  S
O1322      C1323   1.247       .  A
C1323      O1324   1.260       .  A
C1323      C2707   1.545       .  S
O1324     Cr1340   2.062       .  S
O1325     Cr1340   2.057       .  S
O1325      C1326   1.283       .  A
C1326      O1327   1.256       .  A
C1326      C2714   1.498       .  S
O1327     Cr1341   1.952       .  S
O1328     Cr1341   2.030       .  S
O1328      C1329   1.279       .  A
C1329      C2724   1.456       .  S
O1330     Cr1339   2.009       .  S
O1330      C1338   1.261       .  A
O1331     Cr1339   1.888       .  S
O1331      C1332   1.244       .  A
C1332      O1333   1.301       .  A
C1332      C2737   1.541       .  S
O1333     Cr1340   2.116       .  S
O1334     Cr1340   1.986       .  S
O1334      C1335   1.255       .  A
C1335      O1336   1.266       .  A
C1335      C2854   1.495       .  S
O1336     Cr1341   2.019       .  S
O1337     Cr1341   1.974       .  S
O1337      C1338   1.255       .  A
C1338      C2784   1.486       .  S
Cr1339     O1342   1.785       .  S
Cr1340     O1342   1.768       .  S
Cr1341     O1342   1.746       .  S
O1343     Cr1361   1.969       .  S
O1343      C1351   1.255       .  A
O1344     Cr1361   2.001       .  S
O1344      C1345   1.264       .  A
C1345      O1346   1.274       .  A
C1345      C2924   1.541       .  S
O1346     Cr1362   2.062       .  S
O1347     Cr1362   2.077   1_556  S
O1347      C1348   1.278       .  A
C1348      O1349   1.243       .  A
C1348      C3614   1.489       .  S
O1349     Cr1363   1.951   1_556  S
O1350     Cr1363   1.981       .  S
O1350      C1351   1.261       .  A
C1351      C3567   1.450       .  S
O1352     Cr1361   1.991       .  S
O1352      C1360   1.259       .  A
O1353     Cr1361   1.943       .  S
O1353      C1354   1.255       .  A
C1354      O1355   1.289       .  A
C1354      C2734   1.527       .  S
O1355     Cr1362   2.085       .  S
O1356     Cr1362   2.013       .  S
O1356      C1357   1.264   1_554  A
C1357      O1358   1.257       .  A
C1357      C4757   1.491       .  S
O1358     Cr1363   2.018   1_556  S
O1359     Cr1363   1.963       .  S
O1359      C1360   1.258       .  A
C1360      C3917   1.466       .  S
Cr1361     O1364   1.768       .  S
Cr1362     O1364   1.771       .  S
Cr1363     O1364   1.743       .  S
O1365     Cr1383   1.994       .  S
O1365      C1373   1.255       .  A
O1366     Cr1383   1.986       .  S
O1366      C1367   1.260       .  A
C1367      O1368   1.291       .  A
C1367      C2694   1.552       .  S
O1368     Cr1384   2.092       .  S
O1369     Cr1384   1.991       .  S
O1369      C1370   1.261       .  A
C1370      O1371   1.274       .  A
C1370      C3767   1.493       .  S
O1371     Cr1385   2.019       .  S
O1372     Cr1385   1.961       .  S
O1372      C1373   1.256       .  A
C1373      C3707   1.477       .  S
O1374     Cr1383   1.962       .  S
O1374      C1382   1.254   1_545  A
O1375     Cr1383   1.999       .  S
O1375      C1376   1.265       .  A
C1376      O1377   1.269       .  A
C1376      C3884   1.542       .  S
O1377     Cr1384   2.053       .  S
O1378     Cr1384   2.052       .  S
O1378      C1379   1.275       .  A
C1379      O1380   1.258       .  A
C1379      C2674   1.500       .  S
O1380     Cr1385   1.984       .  S
O1381     Cr1385   2.019   1_565  S
O1381      C1382   1.271       .  A
C1382      C2684   1.468       .  S
Cr1383     O1386   1.780       .  S
Cr1384     O1386   1.776       .  S
Cr1385     O1386   1.761       .  S
O1387     Cr1405   1.947       .  S
O1387      C1395   1.245       .  A
O1388     Cr1405   2.004       .  S
O1388      C1389   1.270       .  A
C1389      O1390   1.265       .  A
C1389      C2697   1.556       .  S
O1390     Cr1406   2.027       .  S
O1391     Cr1406   2.014       .  S
O1391      C1392   1.263       .  A
C1392      O1393   1.273       .  A
C1392      C2774   1.519       .  S
O1393     Cr1407   2.029       .  S
O1394     Cr1407   1.976       .  S
O1394      C1395   1.254       .  A
C1395      C2727   1.448       .  S
O1396     Cr1405   1.981       .  S
O1396      C1404   1.260       .  A
O1397     Cr1405   1.975       .  S
O1397      C1398   1.250       .  A
C1398      O1399   1.279       .  A
C1398      C3427   1.522       .  S
O1399     Cr1406   2.077       .  S
O1400     Cr1406   2.036       .  S
O1400      C1401   1.278       .  A
C1401      O1402   1.254       .  A
C1401      C2654   1.503       .  S
O1402     Cr1407   1.939       .  S
O1403     Cr1407   1.996       .  S
O1403      C1404   1.266       .  A
C1404      C2664   1.482       .  S
Cr1405     O1408   1.795       .  S
Cr1406     O1408   1.799       .  S
Cr1407     O1408   1.771       .  S
O1409     Cr1427   1.983       .  S
O1409      C1417   1.260       .  A
O1410     Cr1427   2.010       .  S
O1410      C1411   1.258       .  A
C1411      O1412   1.280       .  A
C1411      C4337   1.555       .  S
O1412     Cr1428   2.083       .  S
O1413     Cr1428   2.008       .  S
O1413      C1414   1.272       .  A
C1414      O1415   1.270       .  A
C1414      C2624   1.494       .  S
O1415     Cr1429   2.014       .  S
O1416     Cr1429   1.952       .  S
O1416      C1417   1.260       .  A
C1417      C2634   1.459       .  S
O1418     Cr1427   1.983       .  S
O1418      C1426   1.256       .  A
O1419     Cr1427   2.004       .  S
O1419      C1420   1.276       .  A
C1420      O1421   1.263       .  A
C1420      C2644   1.544       .  S
O1421     Cr1428   2.019       .  S
O1422     Cr1428   2.041       .  S
O1422      C1423   1.268       .  A
C1423      O1424   1.258       .  A
C1423      C3717   1.525       .  S
O1424     Cr1429   1.987       .  S
O1425     Cr1429   1.996       .  S
O1425      C1426   1.260       .  A
C1426      C2687   1.484       .  S
Cr1427     O1430   1.792       .  S
Cr1428     O1430   1.795       .  S
Cr1429     O1430   1.766       .  S
O1431     Cr1449   1.968       .  S
O1431      C1439   1.262       .  A
O1432     Cr1449   1.976       .  S
O1432      C1433   1.253       .  A
C1433      O1434   1.260       .  A
C1433      C2704   1.535       .  S
O1434     Cr1450   2.049       .  S
O1435     Cr1450   2.058       .  S
O1435      C1436   1.276       .  A
C1436      O1437   1.256       .  A
C1436      C3084   1.495       .  S
O1437     Cr1451   1.942       .  S
O1438     Cr1451   2.003       .  S
O1438      C1439   1.273       .  A
C1439      C3864   1.461       .  S
O1440     Cr1449   1.995       .  S
O1440      C1448   1.252       .  A
O1441     Cr1449   1.933       .  S
O1441      C1442   1.256       .  A
C1442      O1443   1.297       .  A
C1442      C2647   1.547       .  S
O1443     Cr1450   2.091       .  S
O1444     Cr1450   1.985       .  S
O1444      C1445   1.256       .  A
C1445      O1446   1.265       .  A
C1445      C2614   1.490       .  S
O1446     Cr1451   2.011       .  S
O1447     Cr1451   1.966       .  S
O1447      C1448   1.255       .  A
C1448      C3007   1.459       .  S
Cr1449     O1452   1.798       .  S
Cr1450     O1452   1.780       .  S
Cr1451     O1452   1.739       .  S
O1453     Cr1471   1.938       .  S
O1453      C1461   1.239       .  A
O1454     Cr1471   1.997       .  S
O1454      C1455   1.267       .  A
C1455      O1456   1.270       .  A
C1455      C2604   1.561       .  S
O1456     Cr1472   2.070       .  S
O1457     Cr1472   2.041       .  S
O1457      C1458   1.275       .  A
C1458      O1459   1.264       .  A
C1458      C2594   1.488       .  S
O1459     Cr1473   1.965       .  S
O1460     Cr1473   1.989       .  S
O1460      C1461   1.260       .  A
C1461      C2564   1.458       .  S
O1462     Cr1471   1.995       .  S
O1462      C1470   1.264       .  A
O1463     Cr1471   1.960       .  S
O1463      C1464   1.253       .  A
C1464      O1465   1.295       .  A
C1464      C2977   1.543       .  S
O1465     Cr1472   2.117       .  S
O1466     Cr1472   2.057       .  S
O1466      C1467   1.280       .  A
C1467      O1468   1.250       .  A
C1467      C2574   1.494       .  S
O1468     Cr1473   1.949       .  S
O1469     Cr1473   1.948       .  S
O1469      C1470   1.249       .  A
C1470      C2584   1.442       .  S
Cr1471     O1474   1.791       .  S
Cr1472     O1474   1.756       .  S
Cr1473     O1474   1.755       .  S
O1475     Cr1493   1.987       .  S
O1475      C1483   1.257       .  A
O1476     Cr1493   1.994       .  S
O1476      C1477   1.256       .  A
C1477      O1478   1.286       .  A
C1477      C2607   1.552       .  S
O1478     Cr1494   2.068       .  S
O1479     Cr1494   1.992       .  S
O1479      C1480   1.259       .  A
C1480      O1481   1.272       .  A
C1480      C2554   1.506       .  S
O1481     Cr1495   2.028       .  S
O1482     Cr1495   1.959       .  S
O1482      C1483   1.259       .  A
C1483      C4497   1.465       .  S
O1484     Cr1493   1.968       .  S
O1484      C1492   1.253       .  A
O1485     Cr1493   2.017       .  S
O1485      C1486   1.273       .  A
C1486      O1487   1.266       .  A
C1486      C2544   1.572       .  S
O1487     Cr1494   2.037       .  S
O1488     Cr1494   2.049       .  S
O1488      C1489   1.273       .  A
C1489      O1490   1.257       .  A
C1489      C3117   1.502       .  S
O1490     Cr1495   1.955       .  S
O1491     Cr1495   2.011       .  S
O1491      C1492   1.268       .  A
C1492      C3367   1.466       .  S
Cr1493     O1496   1.780       .  S
Cr1494     O1496   1.778       .  S
Cr1495     O1496   1.751       .  S
O1497     Cr1515   1.996       .  S
O1497      C1505   1.264       .  A
O1498     Cr1515   1.978       .  S
O1498      C1499   1.263       .  A
C1499      O1500   1.292       .  A
C1499      C2534   1.554       .  S
O1500     Cr1516   2.091       .  S
O1501     Cr1516   2.031       .  S
O1501      C1502   1.259       .  A
C1502      O1503   1.250       .  A
C1502      C2494   1.504       .  S
O1503     Cr1517   1.989       .  S
O1504     Cr1517   1.958       .  S
O1504      C1505   1.257       .  A
C1505      C2524   1.462       .  S
O1506     Cr1515   1.984       .  S
O1506      C1514   1.261       .  A
O1507     Cr1515   2.014       .  S
O1507      C1508   1.261       .  A
C1508      O1509   1.274       .  A
C1508      C2547   1.561       .  S
O1509     Cr1516   2.066       .  S
O1510     Cr1516   2.097       .  S
O1510      C1511   1.294       .  A
C1511      O1512   1.257       .  A
C1511      C2504   1.510       .  S
O1512     Cr1517   1.940       .  S
O1513     Cr1517   1.975       .  S
O1513      C1514   1.254       .  A
C1514      C2514   1.464       .  S
Cr1515     O1518   1.781       .  S
Cr1516     O1518   1.761       .  S
Cr1517     O1518   1.773       .  S
O1519     Cr1537   1.929       .  S
O1519      C1527   1.241       .  A
O1520     Cr1537   2.012       .  S
O1520      C1521   1.273       .  A
C1521      O1522   1.266       .  A
C1521      C2537   1.566       .  S
O1522     Cr1538   2.038       .  S
O1523     Cr1538   2.082   1_545  S
O1523      C1524   1.281       .  A
C1524      O1525   1.254   1_545  A
C1524      C3474   1.504       .  S
O1525     Cr1539   1.955       .  S
O1526     Cr1539   2.012       .  S
O1526      C1527   1.259       .  A
C1527      C3397   1.449       .  S
O1528     Cr1537   2.011       .  S
O1528      C1536   1.270       .  A
O1529     Cr1537   1.982       .  S
O1529      C1530   1.257       .  A
C1530      O1531   1.293       .  A
C1530      C2484   1.548       .  S
O1531     Cr1538   2.115       .  S
O1532     Cr1538   2.006   1_545  S
O1532      C1533   1.267       .  A
C1533      O1534   1.266       .  A
C1533      C4257   1.482       .  S
O1534     Cr1539   2.011   1_545  S
O1535     Cr1539   1.943       .  S
O1535      C1536   1.256       .  A
C1536      C4797   1.452       .  S
Cr1537     O1540   1.766       .  S
Cr1538     O1540   1.770       .  S
Cr1539     O1540   1.764       .  S
O1541     Cr1559   1.942       .  S
O1541      C1549   1.246       .  A
O1542     Cr1559   2.021       .  S
O1542      C1543   1.271       .  A
C1543      O1544   1.275       .  A
C1543      C2474   1.551       .  S
O1544     Cr1560   2.037       .  S
O1545     Cr1560   2.050       .  S
O1545      C1546   1.273       .  A
C1546      O1547   1.257       .  A
C1546      C3197   1.489       .  S
O1547     Cr1561   1.970       .  S
O1548     Cr1561   1.985       .  S
O1548      C1549   1.255       .  A
C1549      C4847   1.446       .  S
O1550     Cr1559   2.000       .  S
O1550      C1558   1.267       .  A
O1551     Cr1559   2.000       .  S
O1551      C1552   1.262       .  A
C1552      O1553   1.279       .  A
C1552      C2997   1.536       .  S
O1553     Cr1560   2.063       .  S
O1554     Cr1560   2.027       .  S
O1554      C1555   1.268       .  A
C1555      O1556   1.257       .  A
C1555      C4167   1.493       .  S
O1556     Cr1561   1.992       .  S
O1557     Cr1561   1.964       .  S
O1557      C1558   1.260       .  A
C1558      C4327   1.469       .  S
Cr1559     O1562   1.775       .  S
Cr1560     O1562   1.768       .  S
Cr1561     O1562   1.773       .  S
O1563     Cr1581   1.956       .  S
O1563      C1571   1.249       .  A
O1564     Cr1581   2.010       .  S
O1564      C1565   1.270       .  A
C1565      O1566   1.276       .  A
C1565      C2477   1.562       .  S
O1566     Cr1582   2.069       .  S
O1567     Cr1582   2.073   1_545  S
O1567      C1568   1.279       .  A
C1568      O1569   1.258   1_545  A
C1568      C2677   1.496       .  S
O1569     Cr1583   1.952       .  S
O1570     Cr1583   1.999       .  S
O1570      C1571   1.260       .  A
C1571      C2637   1.473       .  S
O1572     Cr1581   2.013       .  S
O1572      C1580   1.267       .  A
O1573     Cr1581   1.995       .  S
O1573      C1574   1.262       .  A
C1574      O1575   1.291       .  A
C1574      C2487   1.553       .  S
O1575     Cr1582   2.101       .  S
O1576     Cr1582   2.030   1_545  S
O1576      C1577   1.269       .  A
C1577      O1578   1.251       .  A
C1577      C3757   1.481       .  S
O1578     Cr1583   1.960   1_545  S
O1579     Cr1583   1.933       .  S
O1579      C1580   1.247       .  A
C1580      C2464   1.449       .  S
Cr1581     O1584   1.780       .  S
Cr1582     O1584   1.763       .  S
Cr1583     O1584   1.761       .  S
O1585     Cr1603   1.981       .  S
O1585      C1593   1.259   1_565  A
O1586     Cr1603   2.004       .  S
O1586      C1587   1.266       .  A
C1587      O1588   1.268       .  A
C1587      C3604   1.536       .  S
O1588     Cr1604   2.045       .  S
O1589     Cr1604   2.055       .  S
O1589      C1590   1.272       .  A
C1590      O1591   1.252       .  A
C1590      C3737   1.490       .  S
O1591     Cr1605   1.962       .  S
O1592     Cr1605   2.006       .  S
O1592      C1593   1.266   1_565  A
C1593      C3777   1.471       .  S
O1594     Cr1603   2.003       .  S
O1594      C1602   1.257       .  A
O1595     Cr1603   1.961       .  S
O1595      C1596   1.255       .  A
C1596      O1597   1.287       .  A
C1596      C2454   1.547       .  S
O1597     Cr1604   2.076       .  S
O1598     Cr1604   1.998       .  S
O1598      C1599   1.261       .  A
C1599      O1600   1.260       .  A
C1599      C2627   1.488       .  S
O1600     Cr1605   2.016       .  S
O1601     Cr1605   1.953       .  S
O1601      C1602   1.257       .  A
C1602      C2467   1.469       .  S
Cr1603     O1606   1.785       .  S
Cr1604     O1606   1.787       .  S
Cr1605     O1606   1.745       .  S
O1607     Cr1625   1.977       .  S
O1607      C1615   1.259       .  A
O1608     Cr1625   2.005       .  S
O1608      C1609   1.259       .  A
C1609      O1610   1.289       .  A
C1609      C4827   1.549       .  S
O1610     Cr1626   2.102       .  S
O1611     Cr1626   2.003       .  S
O1611      C1612   1.269       .  A
C1612      O1613   1.275       .  A
C1612      C2424   1.491       .  S
O1613     Cr1627   2.021       .  S
O1614     Cr1627   1.942       .  S
O1614      C1615   1.254       .  A
C1615      C2527   1.446       .  S
O1616     Cr1625   1.973       .  S
O1616      C1624   1.254       .  A
O1617     Cr1625   1.999       .  S
O1617      C1618   1.270       .  A
C1618      O1619   1.267       .  A
C1618      C2457   1.547       .  S
O1619     Cr1626   2.032       .  S
O1620     Cr1626   2.078       .  S
O1620      C1621   1.276       .  A
C1621      O1622   1.249       .  A
C1621      C2437   1.515       .  S
O1622     Cr1627   1.972       .  S
O1623     Cr1627   1.993       .  S
O1623      C1624   1.260       .  A
C1624      C2444   1.473       .  S
Cr1625     O1628   1.786       .  S
Cr1626     O1628   1.788       .  S
Cr1627     O1628   1.760       .  S
O1629     Cr1647   1.965       .  S
O1629      C1637   1.252       .  A
O1630     Cr1647   2.001       .  S
O1630      C1631   1.275       .  A
C1631      O1632   1.270       .  A
C1631      C2417   1.551       .  S
O1632     Cr1648   2.033       .  S
O1633     Cr1648   2.035       .  S
O1633      C1634   1.270       .  A
C1634      O1635   1.265       .  A
C1634      C3124   1.514       .  S
O1635     Cr1649   2.002       .  S
O1636     Cr1649   1.971       .  S
O1636      C1637   1.255       .  A
C1637      C4687   1.460       .  S
O1638     Cr1647   1.992       .  S
O1638      C1646   1.262       .  A
O1639     Cr1647   2.009       .  S
O1639      C1640   1.257       .  A
C1640      O1641   1.279       .  A
C1640      C3057   1.546       .  S
O1641     Cr1648   2.086       .  S
O1642     Cr1648   2.051       .  S
O1642      C1643   1.281       .  A
C1643      O1644   1.253       .  A
C1643      C2557   1.506       .  S
O1644     Cr1649   1.978       .  S
O1645     Cr1649   1.951       .  S
O1645      C1646   1.253       .  A
C1646      C4484   1.450       .  S
Cr1647     O1650   1.792       .  S
Cr1648     O1650   1.780       .  S
Cr1649     O1650   1.766       .  S
O1651     Cr1669   2.007       .  S
O1651      C1659   1.253       .  A
O1652     Cr1669   1.946       .  S
O1652      C1653   1.256       .  A
C1653      O1654   1.297       .  A
C1653      C2414   1.557       .  S
O1654     Cr1670   2.099       .  S
O1655     Cr1670   1.983       .  S
O1655      C1656   1.256       .  A
C1656      O1657   1.265       .  A
C1656      C2807   1.496   1_556  S
O1657     Cr1671   2.009       .  S
O1658     Cr1671   1.962       .  S
O1658      C1659   1.249       .  A
C1659      C2757   1.464       .  S
O1660     Cr1669   1.961       .  S
O1660      C1668   1.257       .  A
O1661     Cr1669   1.996       .  S
O1661      C1662   1.259       .  A
C1662      O1663   1.261       .  A
C1662      C2394   1.550       .  S
O1663     Cr1670   2.043       .  S
O1664     Cr1670   2.061   1_554  S
O1664      C1665   1.281       .  A
C1665      O1666   1.255       .  A
C1665      C4117   1.506       .  S
O1666     Cr1671   1.935   1_554  S
O1667     Cr1671   2.028       .  S
O1667      C1668   1.279       .  A
C1668      C2404   1.458       .  S
Cr1669     O1672   1.802       .  S
Cr1670     O1672   1.775       .  S
Cr1671     O1672   1.750       .  S
O1673     Cr1691   1.965       .  S
O1673      C1681   1.256       .  A
O1674     Cr1691   1.989       .  S
O1674      C1675   1.256       .  A
C1675      O1676   1.262       .  A
C1675      C2384   1.544       .  S
O1676     Cr1692   2.063       .  S
O1677     Cr1692   1.982       .  S
O1677      C1678   1.258       .  A
C1678      O1679   1.265       .  A
C1678      C2364   1.466       .  S
O1679     Cr1693   1.976       .  S
O1680     Cr1693   1.967       .  S
O1680      C1681   1.254       .  A
C1681      C2374   1.455       .  S
O1682     Cr1691   1.977       .  S
O1682      C1690   1.257       .  A
O1683     Cr1691   1.942       .  S
O1683      C1684   1.256       .  A
C1684      O1685   1.286       .  A
C1684      C3797   1.531       .  S
O1685     Cr1692   2.073       .  S
O1686     Cr1692   2.035       .  S
O1686      C1687   1.273       .  A
C1687      O1688   1.253       .  A
C1687      C2497   1.496       .  S
O1688     Cr1693   1.957       .  S
O1689     Cr1693   2.002       .  S
O1689      C1690   1.267       .  A
C1690      C2447   1.489       .  S
Cr1691     O1694   1.783       .  S
Cr1692     O1694   1.787       .  S
Cr1693     O1694   1.759       .  S
O1695     Cr1713   1.970       .  S
O1695      C1703   1.253       .  A
O1696     Cr1713   1.981       .  S
O1696      C1697   1.257       .  A
C1697      O1698   1.287       .  A
C1697      C2387   1.539       .  S
O1698     Cr1714   2.079       .  S
O1699     Cr1714   2.002       .  S
O1699      C1700   1.266   1_556  A
C1700      O1701   1.271       .  A
C1700      C3557   1.505       .  S
O1701     Cr1715   2.025   1_554  S
O1702     Cr1715   1.980       .  S
O1702      C1703   1.262       .  A
C1703      C3637   1.465       .  S
O1704     Cr1713   1.985       .  S
O1704      C1712   1.259       .  A
O1705     Cr1713   2.001       .  S
O1705      C1706   1.262       .  A
C1706      O1707   1.264       .  A
C1706      C2397   1.557       .  S
O1707     Cr1714   2.046       .  S
O1708     Cr1714   2.026   1_554  S
O1708      C1709   1.269       .  A
C1709      O1710   1.258       .  A
C1709      C3897   1.495       .  S
O1710     Cr1715   1.967   1_554  S
O1711     Cr1715   2.011       .  S
O1711      C1712   1.267       .  A
C1712      C4737   1.476       .  S
Cr1713     O1716   1.784       .  S
Cr1714     O1716   1.781       .  S
Cr1715     O1716   1.767       .  S
O1717     Cr1735   2.006       .  S
O1717      C1725   1.267   1_556  A
O1718     Cr1735   1.987       .  S
O1718      C1719   1.253       .  A
C1719      O1720   1.284       .  A
C1719      C3957   1.553       .  S
O1720     Cr1736   2.093       .  S
O1721     Cr1736   2.010       .  S
O1721      C1722   1.273       .  A
C1722      O1723   1.269       .  A
C1722      C2967   1.486       .  S
O1723     Cr1737   2.015       .  S
O1724     Cr1737   1.964       .  S
O1724      C1725   1.261   1_556  A
C1725      C4127   1.469       .  S
O1726     Cr1735   1.918       .  S
O1726      C1734   1.238       .  A
O1727     Cr1735   2.011       .  S
O1727      C1728   1.276       .  A
C1728      O1729   1.266       .  A
C1728      C2357   1.562       .  S
O1729     Cr1736   2.013       .  S
O1730     Cr1736   2.064       .  S
O1730      C1731   1.276       .  A
C1731      O1732   1.262       .  A
C1731      C2747   1.521       .  S
O1732     Cr1737   1.992       .  S
O1733     Cr1737   2.025       .  S
O1733      C1734   1.265       .  A
C1734      C2407   1.459       .  S
Cr1735     O1738   1.775       .  S
Cr1736     O1738   1.780       .  S
Cr1737     O1738   1.768       .  S
O1739     Cr1757   1.972       .  S
O1739      C1747   1.260       .  A
O1740     Cr1757   1.958       .  S
O1740      C1741   1.247       .  A
C1741      O1742   1.281       .  A
C1741      C4667   1.537       .  S
O1742     Cr1758   2.082       .  S
O1743     Cr1758   2.031       .  S
O1743      C1744   1.275       .  A
C1744      O1745   1.266       .  A
C1744      C2434   1.508       .  S
O1745     Cr1759   2.001       .  S
O1746     Cr1759   1.955       .  S
O1746      C1747   1.255       .  A
C1747      C2377   1.444       .  S
O1748     Cr1757   1.948       .  S
O1748      C1756   1.242       .  A
O1749     Cr1757   1.996       .  S
O1749      C1750   1.268       .  A
C1750      O1751   1.267       .  A
C1750      C2354   1.564       .  S
O1751     Cr1758   2.032       .  S
O1752     Cr1758   2.035       .  S
O1752      C1753   1.271       .  A
C1753      O1754   1.265       .  A
C1753      C2334   1.501       .  S
O1754     Cr1759   1.976       .  S
O1755     Cr1759   2.035       .  S
O1755      C1756   1.266       .  A
C1756      C2344   1.472       .  S
Cr1757     O1760   1.770       .  S
Cr1758     O1760   1.773       .  S
Cr1759     O1760   1.765       .  S
O1761     Cr1779   2.011       .  S
O1761      C1769   1.250       .  A
O1762     Cr1779   1.932       .  S
O1762      C1763   1.263       .  A
C1763      O1764   1.293       .  A
C1763      C2324   1.534       .  S
O1764     Cr1780   2.085       .  S
O1765     Cr1780   2.005       .  S
O1765      C1766   1.263       .  A
C1766      O1767   1.263       .  A
C1766      C2507   1.502       .  S
O1767     Cr1781   1.994       .  S
O1768     Cr1781   1.964       .  S
O1768      C1769   1.246       .  A
C1769      C2314   1.466       .  S
O1770     Cr1779   1.963       .  S
O1770      C1778   1.264       .  A
O1771     Cr1779   1.991       .  S
O1771      C1772   1.254       .  A
C1772      O1773   1.268       .  A
C1772      C4147   1.550       .  S
O1773     Cr1780   2.077       .  S
O1774     Cr1780   2.036       .  S
O1774      C1775   1.274       .  A
C1775      O1776   1.251       .  A
C1775      C2367   1.477       .  S
O1776     Cr1781   1.930       .  S
O1777     Cr1781   2.009       .  S
O1777      C1778   1.275       .  A
C1778      C2347   1.451       .  S
Cr1779     O1782   1.787       .  S
Cr1780     O1782   1.779       .  S
Cr1781     O1782   1.746       .  S
O1783     Cr1801   1.995       .  S
O1783      C1791   1.257       .  A
O1784     Cr1801   1.945       .  S
O1784      C1785   1.253       .  A
C1785      O1786   1.286       .  A
C1785      C2327   1.534       .  S
O1786     Cr1802   2.081       .  S
O1787     Cr1802   1.984       .  S
O1787      C1788   1.258       .  A
C1788      O1789   1.271   1_655  A
C1788      C4054   1.498   1_655  S
O1789     Cr1803   2.030   1_455  S
O1790     Cr1803   1.942       .  S
O1790      C1791   1.252       .  A
C1791      C3964   1.459       .  S
O1792     Cr1801   1.962       .  S
O1792      C1800   1.252       .  A
O1793     Cr1801   1.994       .  S
O1793      C1794   1.265       .  A
C1794      O1795   1.261       .  A
C1794      C2304   1.551       .  S
O1795     Cr1802   2.027       .  S
O1796     Cr1802   2.055   1_455  S
O1796      C1797   1.276       .  A
C1797      O1798   1.256       .  A
C1797      C4627   1.501       .  S
O1798     Cr1803   1.942   1_455  S
O1799     Cr1803   2.027       .  S
O1799      C1800   1.272       .  A
C1800      C4957   1.469       .  S
Cr1801     O1804   1.782       .  S
Cr1802     O1804   1.782       .  S
Cr1803     O1804   1.754       .  S
O1805     Cr1823   2.035   1_455  S
O1805      C1813   1.270       .  A
O1806     Cr1823   1.965       .  S
O1806      C1807   1.246       .  A
C1807      O1808   1.279       .  A
C1807      C3387   1.526       .  S
O1808     Cr1824   2.070       .  S
O1809     Cr1824   2.020       .  S
O1809      C1810   1.267       .  A
C1810      O1811   1.258       .  A
C1810      C2274   1.492       .  S
O1811     Cr1825   1.988       .  S
O1812     Cr1825   1.924   1_455  S
O1812      C1813   1.232       .  A
C1813      C2567   1.444       .  S
O1814     Cr1823   1.915       .  S
O1814      C1822   1.238       .  A
O1815     Cr1823   2.032       .  S
O1815      C1816   1.283       .  A
C1816      O1817   1.266       .  A
C1816      C2297   1.545       .  S
O1817     Cr1824   2.010       .  S
O1818     Cr1824   2.021       .  S
O1818      C1819   1.274       .  A
C1819      O1820   1.278       .  A
C1819      C2267   1.493       .  S
O1820     Cr1825   2.006       .  S
O1821     Cr1825   2.081       .  S
O1821      C1822   1.275       .  A
C1822      C2284   1.485       .  S
Cr1823     O1826   1.795       .  S
Cr1824     O1826   1.773       .  S
Cr1825     O1826   1.746       .  S
O1827     Cr1845   2.044       .  S
O1827      C1835   1.276       .  A
O1828     Cr1845   1.959       .  S
O1828      C1829   1.252       .  A
C1829      O1830   1.289       .  A
C1829      C4887   1.530       .  S
O1830     Cr1846   2.097       .  S
O1831     Cr1846   1.990       .  S
O1831      C1832   1.257       .  A
C1832      O1833   1.264       .  A
C1832      C2337   1.474       .  S
O1833     Cr1847   2.010       .  S
O1834     Cr1847   1.935       .  S
O1834      C1835   1.250       .  A
C1835      C2317   1.473       .  S
O1836     Cr1845   1.946       .  S
O1836      C1844   1.245       .  A
O1837     Cr1845   2.030       .  S
O1837      C1838   1.278       .  A
C1838      O1839   1.259       .  A
C1838      C2294   1.533       .  S
O1839     Cr1846   2.003       .  S
O1840     Cr1846   2.078       .  S
O1840      C1841   1.284       .  A
C1841      O1842   1.254       .  A
C1841      C2427   1.508       .  S
O1842     Cr1847   1.927       .  S
O1843     Cr1847   2.034       .  S
O1843      C1844   1.270       .  A
C1844      C2517   1.481       .  S
Cr1845     O1848   1.771       .  S
Cr1846     O1848   1.775       .  S
Cr1847     O1848   1.755       .  S
O1849     Cr1867   1.971       .  S
O1849      C1857   1.251       .  A
O1850     Cr1867   1.991       .  S
O1850      C1851   1.266       .  A
C1851      O1852   1.267       .  A
C1851      C2254   1.547       .  S
O1852     Cr1868   2.042       .  S
O1853     Cr1868   2.036       .  S
O1853      C1854   1.269       .  A
C1854      O1855   1.266       .  A
C1854      C3297   1.515       .  S
O1855     Cr1869   2.000       .  S
O1856     Cr1869   2.009       .  S
O1856      C1857   1.263       .  A
C1857      C4907   1.478       .  S
O1858     Cr1867   1.979       .  S
O1858      C1866   1.257       .  A
O1859     Cr1867   1.999       .  S
O1859      C1860   1.258       .  A
C1860      O1861   1.284       .  A
C1860      C2244   1.561       .  S
O1861     Cr1868   2.093       .  S
O1862     Cr1868   2.023       .  S
O1862      C1863   1.274       .  A
C1863      O1864   1.268       .  A
C1863      C3814   1.499       .  S
O1864     Cr1869   1.997       .  S
O1865     Cr1869   1.958       .  S
O1865      C1866   1.256       .  A
C1866      C4397   1.453       .  S
Cr1867     O1870   1.790       .  S
Cr1868     O1870   1.786       .  S
Cr1869     O1870   1.770       .  S
O1871     Cr1889   1.985       .  S
O1871      C1879   1.250       .  A
O1872     Cr1889   1.962       .  S
O1872      C1873   1.260       .  A
C1873      O1874   1.294       .  A
C1873      C2257   1.541       .  S
O1874     Cr1890   2.090       .  S
O1875     Cr1890   2.001       .  S
O1875      C1876   1.262   1_655  A
C1876      O1877   1.271       .  A
C1876      C2224   1.502       .  S
O1877     Cr1891   2.013       .  S
O1878     Cr1891   1.959   1_655  S
O1878      C1879   1.257       .  A
C1879      C2234   1.465       .  S
O1880     Cr1889   1.966       .  S
O1880      C1888   1.257       .  A
O1881     Cr1889   1.972       .  S
O1881      C1882   1.254       .  A
C1882      O1883   1.270       .  A
C1882      C2307   1.555       .  S
O1883     Cr1890   2.068       .  S
O1884     Cr1890   2.056   1_455  S
O1884      C1885   1.275       .  A
C1885      O1886   1.252       .  A
C1885      C2597   1.488       .  S
O1886     Cr1891   1.963       .  S
O1887     Cr1891   1.983   1_655  S
O1887      C1888   1.268       .  A
C1888      C2287   1.458       .  S
Cr1889     O1892   1.783       .  S
Cr1890     O1892   1.776       .  S
Cr1891     O1892   1.741   1_455  S
O1893     Cr1911   1.977       .  S
O1893      C1901   1.251       .  A
O1894     Cr1911   2.009       .  S
O1894      C1895   1.269       .  A
C1895      O1896   1.276       .  A
C1895      C2837   1.551       .  S
O1896     Cr1912   2.049       .  S
O1897     Cr1912   2.106   1_655  S
O1897      C1898   1.282       .  A
C1898      O1899   1.244   1_655  A
C1898      C2207   1.510       .  S
O1899     Cr1913   1.963       .  S
O1900     Cr1913   1.981       .  S
O1900      C1901   1.254       .  A
C1901      C2194   1.457       .  S
O1902     Cr1911   2.003       .  S
O1902      C1910   1.271       .  A
O1903     Cr1911   1.922       .  S
O1903      C1904   1.245       .  A
C1904      O1905   1.287       .  A
C1904      C2217   1.523       .  S
O1905     Cr1912   2.087       .  S
O1906     Cr1912   2.012       .  S
O1906      C1907   1.263       .  A
C1907      O1908   1.262       .  A
C1907      C2277   1.491       .  S
O1908     Cr1913   2.020       .  S
O1909     Cr1913   1.948       .  S
O1909      C1910   1.256       .  A
C1910      C2587   1.455       .  S
Cr1911     O1914   1.762       .  S
Cr1912     O1914   1.771       .  S
Cr1913     O1914   1.731       .  S
O1915     Cr1933   1.945       .  S
O1915      C1923   1.247       .  A
O1916     Cr1933   1.993       .  S
O1916      C1917   1.262       .  A
C1917      O1918   1.294       .  A
C1917      C4467   1.565       .  S
O1918     Cr1934   2.106       .  S
O1919     Cr1934   2.026       .  S
O1919      C1920   1.268       .  A
C1920      O1921   1.255       .  A
C1920      C2617   1.481       .  S
O1921     Cr1935   1.967       .  S
O1922     Cr1935   1.986       .  S
O1922      C1923   1.261       .  A
C1923      C3014   1.469       .  S
O1924     Cr1933   1.999       .  S
O1924      C1932   1.266       .  A
O1925     Cr1933   1.978       .  S
O1925      C1926   1.250       .  A
C1926      O1927   1.265       .  A
C1926      C2214   1.536       .  S
O1927     Cr1934   2.054       .  S
O1928     Cr1934   2.075       .  S
O1928      C1929   1.281       .  A
C1929      O1930   1.258       .  A
C1929      C3107   1.501       .  S
O1930     Cr1935   1.945       .  S
O1931     Cr1935   1.981       .  S
O1931      C1932   1.259       .  A
C1932      C4024   1.480       .  S
Cr1933     O1936   1.770       .  S
Cr1934     O1936   1.766       .  S
Cr1935     O1936   1.759       .  S
O1937     Cr1955   2.018       .  S
O1937      C1945   1.263       .  A
O1938     Cr1955   1.960       .  S
O1938      C1939   1.258       .  A
C1939      O1940   1.287       .  A
C1939      C2184   1.535       .  S
O1940     Cr1956   2.082       .  S
O1941     Cr1956   1.988       .  S
O1941      C1942   1.261       .  A
C1942      O1943   1.276       .  A
C1942      C3514   1.493       .  S
O1943     Cr1957   2.035       .  S
O1944     Cr1957   1.966       .  S
O1944      C1945   1.257       .  A
C1945      C2917   1.492       .  S
O1946     Cr1955   1.958       .  S
O1946      C1954   1.251       .  A
O1947     Cr1955   2.009       .  S
O1947      C1948   1.268       .  A
C1948      O1949   1.271       .  A
C1948      C2247   1.562       .  S
O1949     Cr1956   2.058       .  S
O1950     Cr1956   2.058       .  S
O1950      C1951   1.274       .  A
C1951      O1952   1.251       .  A
C1951      C4217   1.499       .  S
O1952     Cr1957   1.951       .  S
O1953     Cr1957   2.018       .  S
O1953      C1954   1.271       .  A
C1954      C2174   1.460       .  S
Cr1955     O1958   1.764       .  S
Cr1956     O1958   1.780       .  S
Cr1957     O1958   1.754       .  S
O1959     Cr1977   1.970       .  S
O1959      C1967   1.246       .  A
O1960     Cr1977   1.988       .  S
O1960      C1961   1.258       .  A
C1961      O1962   1.267       .  A
C1961      C2187   1.547       .  S
O1962     Cr1978   2.051       .  S
O1963     Cr1978   2.027       .  S
O1963      C1964   1.269       .  A
C1964      O1965   1.261       .  A
C1964      C3047   1.509       .  S
O1965     Cr1979   1.962       .  S
O1966     Cr1979   2.006       .  S
O1966      C1967   1.259       .  A
C1967      C4437   1.465       .  S
O1968     Cr1977   1.997       .  S
O1968      C1976   1.263       .  A
O1969     Cr1977   1.962       .  S
O1969      C1970   1.259       .  A
C1970      O1971   1.286       .  A
C1970      C4094   1.522       .  S
O1971     Cr1978   2.077       .  S
O1972     Cr1978   2.020       .  S
O1972      C1973   1.271       .  A
C1973      O1974   1.257       .  A
C1973      C2987   1.492       .  S
O1974     Cr1979   1.977       .  S
O1975     Cr1979   1.968       .  S
O1975      C1976   1.261       .  A
C1976      C4357   1.468       .  S
Cr1977     O1980   1.783       .  S
Cr1978     O1980   1.775       .  S
Cr1979     O1980   1.757       .  S
O1981     Cr1999   2.014       .  S
O1981      C1989   1.248       .  A
O1982     Cr1999   1.963       .  S
O1982      C1983   1.257       .  A
C1983      O1984   1.298       .  A
C1983      C2164   1.540       .  S
O1984     Cr2000   2.094       .  S
O1985     Cr2000   1.986       .  S
O1985      C1986   1.254       .  A
C1986      O1987   1.284       .  A
C1986      C2577   1.514       .  S
O1987     Cr2001   2.077       .  S
O1988     Cr2001   1.933       .  S
O1988      C1989   1.278       .  A
C1989      C2197   1.488       .  S
O1990     Cr1999   1.975       .  S
O1990      C1998   1.255       .  A
O1991     Cr1999   2.008       .  S
O1991      C1992   1.266       .  A
C1992      O1993   1.270       .  A
C1992      C4244   1.553       .  S
O1993     Cr2000   2.049       .  S
O1994     Cr2000   2.125       .  S
O1994      C1995   1.284       .  A
C1995      O1996   1.231       .  A
C1995      C2227   1.524       .  S
O1996     Cr2001   1.935       .  S
O1997     Cr2001   1.979       .  S
O1997      C1998   1.261       .  A
C1998      C2157   1.447   1_455  S
Cr1999     O2002   1.783       .  S
Cr2000     O2002   1.777       .  S
Cr2001     O2002   1.732       .  S
O2003     Cr2021   1.956       .  S
O2003      C2011   1.247       .  A
O2004     Cr2021   1.985       .  S
O2004      C2005   1.261       .  A
C2005      O2006   1.261       .  A
C2005      C2167   1.539       .  S
O2006     Cr2022   2.050       .  S
O2007     Cr2022   2.019       .  S
O2007      C2008   1.269       .  A
C2008      O2009   1.264       .  A
C2008      C2657   1.477       .  S
O2009     Cr2023   1.967       .  S
O2010     Cr2023   1.976       .  S
O2010      C2011   1.254       .  A
C2011      C2144   1.468       .  S
O2012     Cr2021   1.978       .  S
O2012      C2020   1.259       .  A
O2013     Cr2021   1.960       .  S
O2013      C2014   1.252       .  A
C2014      O2015   1.294       .  A
C2014      C3997   1.555       .  S
O2015     Cr2022   2.094       .  S
O2016     Cr2022   2.024       .  S
O2016      C2017   1.269       .  A
C2017      O2018   1.251       .  A
C2017      C2797   1.485       .  S
O2018     Cr2023   1.954       .  S
O2019     Cr2023   1.951       .  S
O2019      C2020   1.257       .  A
C2020      C2877   1.458       .  S
Cr2021     O2024   1.793       .  S
Cr2022     O2024   1.769       .  S
Cr2023     O2024   1.753       .  S
O2025     Cr2043   2.023       .  S
O2025      C2033   1.272       .  A
O2026     Cr2043   1.967       .  S
O2026      C2027   1.249       .  A
C2027      O2028   1.282       .  A
C2027      C4417   1.537       .  S
O2028     Cr2044   2.080       .  S
O2029     Cr2044   2.018       .  S
O2029      C2030   1.268       .  A
C2030      O2031   1.260       .  A
C2030      C2264   1.482       .  S
O2031     Cr2045   1.983       .  S
O2032     Cr2045   1.926       .  S
O2032      C2033   1.250       .  A
C2033      C2237   1.450       .  S
O2034     Cr2043   1.927       .  S
O2034      C2042   1.238       .  A
O2035     Cr2043   2.018       .  S
O2035      C2036   1.282       .  A
C2036      O2037   1.265       .  A
C2036      C2137   1.556       .  S
O2037     Cr2044   2.000       .  S
O2038     Cr2044   2.103       .  S
O2038      C2039   1.278       .  A
C2039      O2040   1.246       .  A
C2039      C2204   1.508       .  S
O2040     Cr2045   1.959       .  S
O2041     Cr2045   1.986       .  S
O2041      C2042   1.252       .  A
C2042      C2154   1.445       .  S
Cr2043     O2046   1.758       .  S
Cr2044     O2046   1.792       .  S
Cr2045     O2046   1.725       .  S
O2047     Cr2065   1.953       .  S
O2047      C2055   1.251       .  A
O2048     Cr2065   1.989       .  S
O2048      C2049   1.254       .  A
C2049      O2050   1.279       .  A
C2049      C2127   1.531       .  S
O2050     Cr2066   2.066       .  S
O2051     Cr2066   2.027       .  S
O2051      C2052   1.274       .  A
C2052      O2053   1.266       .  A
C2052      C3177   1.519       .  S
O2053     Cr2067   1.987       .  S
O2054     Cr2067   1.963       .  S
O2054      C2055   1.259       .  A
C2055      C4224   1.440       .  S
O2056     Cr2065   1.950       .  S
O2056      C2064   1.245       .  A
O2057     Cr2065   1.991       .  S
O2057      C2058   1.267       .  A
C2058      O2059   1.265       .  A
C2058      C2134   1.555       .  S
O2059     Cr2066   2.024       .  S
O2060     Cr2066   2.022       .  S
O2060      C2061   1.264       .  A
C2061      O2062   1.263       .  A
C2061      C2907   1.514       .  S
O2062     Cr2067   1.997       .  S
O2063     Cr2067   2.002       .  S
O2063      C2064   1.261       .  A
C2064      C2177   1.469       .  S
Cr2065     O2068   1.797       .  S
Cr2066     O2068   1.796       .  S
Cr2067     O2068   1.763       .  S
O2069     Cr2087   1.991       .  S
O2069      C2077   1.257       .  A
O2070     Cr2087   1.983       .  S
O2070      C2071   1.263       .  A
C2071      O2072   1.294       .  A
C2071      C2124   1.553       .  S
O2072     Cr2088   2.101       .  S
O2073     Cr2088   2.026       .  S
O2073      C2074   1.268       .  A
C2074      O2075   1.254       .  A
C2074      C2867   1.488       .  S
O2075     Cr2089   1.967       .  S
O2076     Cr2089   1.952       .  S
O2076      C2077   1.252       .  A
C2077      C2147   1.447       .  S
O2078     Cr2087   1.997       .  S
O2078      C2086   1.263       .  A
O2079     Cr2087   1.986       .  S
O2079      C2080   1.261       .  A
C2080      O2081   1.263       .  A
C2080      C2114   1.535       .  S
O2081     Cr2088   2.046       .  S
O2082     Cr2088   2.048       .  S
O2082      C2083   1.273       .  A
C2083      O2084   1.260       .  A
C2083      C2717   1.489       .  S
O2084     Cr2089   1.950       .  S
O2085     Cr2089   1.995       .  S
O2085      C2086   1.257       .  A
C2086      C2667   1.490       .  S
Cr2087     O2090   1.803       .  S
Cr2088     O2090   1.784       .  S
Cr2089     O2090   1.745       .  S
O2091     Cr2109   1.983       .  S
O2091      C2099   1.260       .  A
O2092     Cr2109   2.025       .  S
O2092      C2093   1.271       .  A
C2093      O2094   1.267       .  A
C2093      C3697   1.545       .  S
O2094     Cr2110   2.038       .  S
O2095     Cr2110   2.099   1_565  S
O2095      C2096   1.279       .  A
C2096      O2097   1.229       .  A
C2096      C3414   1.504       .  S
O2097     Cr2111   1.934   1_565  S
O2098     Cr2111   1.962       .  S
O2098      C2099   1.257       .  A
C2099      C3467   1.453       .  S
O2100     Cr2109   1.993       .  S
O2100      C2108   1.262       .  A
O2101     Cr2109   1.976       .  S
O2101      C2102   1.257       .  A
C2102      O2103   1.295       .  A
C2102      C2117   1.547       .  S
O2103     Cr2110   2.083       .  S
O2104     Cr2110   1.969       .  S
O2104      C2105   1.251       .  A
C2105      O2106   1.277       .  A
C2105      C4817   1.494   1_545  S
O2106     Cr2111   2.076       .  S
O2107     Cr2111   1.956       .  S
O2107      C2108   1.267       .  A
C2108      C4274   1.463       .  S
Cr2109     O2112   1.784       .  S
Cr2110     O2112   1.787       .  S
Cr2111     O2112   1.746       .  S
C2113      C2114   1.402       .  A
C2113      C2118   1.421       .  A
C2113     Br2120   1.936       .  S
C2114      C2115   1.430       .  A
C2115      C2116   1.435       .  A
C2115     Br2122   1.907       .  S
C2116      C2117   1.410       .  A
C2116     Br2121   1.919       .  S
C2117      C2118   1.428       .  A
C2118     Br2119   1.890       .  S
C2123      C2124   1.430       .  A
C2123      C2128   1.421       .  A
C2123     Br2130   1.908       .  S
C2124      C2125   1.421   1_455  A
C2125      C2126   1.437       .  A
C2125     Br2132   1.923       .  S
C2126      C2127   1.426       .  A
C2126     Br2131   1.926       .  S
C2127      C2128   1.404   1_655  A
C2128     Br2129   1.930       .  S
C2133      C2134   1.423       .  A
C2133      C2138   1.429       .  A
C2133     Br2140   1.938       .  S
C2134      C2135   1.431       .  A
C2135      C2136   1.435       .  A
C2135     Br2142   1.937       .  S
C2136      C2137   1.428       .  A
C2136     Br2141   1.937       .  S
C2137      C2138   1.434       .  A
C2138     Br2139   1.938       .  S
C2143      C2144   1.416       .  A
C2143      C2148   1.387       .  A
C2143     Br2150   1.947       .  S
C2144      C2145   1.423       .  A
C2145      C2146   1.399       .  A
C2145     Br2152   1.937       .  S
C2146      C2147   1.405       .  A
C2146     Br2151   1.934       .  S
C2147      C2148   1.409       .  A
C2148     Br2149   1.940       .  S
C2153      C2154   1.411       .  A
C2153      C2158   1.401       .  A
C2153     Br2160   1.933       .  S
C2154      C2155   1.400       .  A
C2155      C2156   1.393       .  A
C2155     Br2162   1.928       .  S
C2156      C2157   1.401       .  A
C2156     Br2161   1.917       .  S
C2157      C2158   1.403       .  A
C2158     Br2159   1.925       .  S
C2163      C2164   1.410       .  A
C2163      C2168   1.441       .  A
C2163     Br2170   1.928       .  S
C2164      C2165   1.423       .  A
C2165      C2166   1.416       .  A
C2165     Br2172   1.884       .  S
C2166      C2167   1.398       .  A
C2166     Br2171   1.929       .  S
C2167      C2168   1.439       .  A
C2168     Br2169   1.910       .  S
C2173      C2174   1.405       .  A
C2173      C2178   1.395       .  A
C2173     Br2180   1.931       .  S
C2174      C2175   1.401       .  A
C2175      C2176   1.404       .  A
C2175     Br2182   1.918       .  S
C2176      C2177   1.413       .  A
C2176     Br2181   1.925       .  S
C2177      C2178   1.400       .  A
C2178     Br2179   1.897       .  S
C2183      C2184   1.424       .  A
C2183      C2188   1.439       .  A
C2183     Br2190   1.923       .  S
C2184      C2185   1.416       .  A
C2185      C2186   1.417       .  A
C2185     Br2192   1.935       .  S
C2186      C2187   1.427       .  A
C2186     Br2191   1.937       .  S
C2187      C2188   1.428       .  A
C2188     Br2189   1.927       .  S
C2193      C2194   1.395       .  A
C2193      C2198   1.411       .  A
C2193     Br2200   1.927       .  S
C2194      C2195   1.397       .  A
C2195      C2196   1.385       .  A
C2195     Br2202   1.921       .  S
C2196      C2197   1.411       .  A
C2196     Br2201   1.938       .  S
C2197      C2198   1.438       .  A
C2198     Br2199   1.924       .  S
C2203      C2204   1.415       .  A
C2203      C2208   1.393       .  A
C2203     Br2210   1.938       .  S
C2204      C2205   1.418       .  A
C2205      C2206   1.434       .  A
C2205     Br2212   1.921       .  S
C2206      C2207   1.419       .  A
C2206     Br2211   1.922       .  S
C2207      C2208   1.420       .  A
C2208     Br2209   1.934       .  S
C2213      C2214   1.430       .  A
C2213      C2218   1.420       .  A
C2213     Br2220   1.949       .  S
C2214      C2215   1.425       .  A
C2215      C2216   1.431       .  A
C2215     Br2222   1.930       .  S
C2216      C2217   1.416       .  A
C2216     Br2221   1.923       .  S
C2217      C2218   1.424       .  A
C2218     Br2219   1.945       .  S
C2223      C2224   1.418       .  A
C2223      C2228   1.434       .  A
C2223     Br2230   1.927       .  S
C2224      C2225   1.389       .  A
C2225      C2226   1.396       .  A
C2225     Br2232   1.930   1_455  S
C2226      C2227   1.437       .  A
C2226     Br2231   1.939       .  S
C2227      C2228   1.422       .  A
C2228     Br2229   1.922       .  S
C2233      C2234   1.403       .  A
C2233      C2238   1.391       .  A
C2233     Br2240   1.940       .  S
C2234      C2235   1.417       .  A
C2235      C2236   1.403       .  A
C2235     Br2242   1.927       .  S
C2236      C2237   1.401       .  A
C2236     Br2241   1.931       .  S
C2237      C2238   1.412       .  A
C2238     Br2239   1.926       .  S
C2243      C2244   1.426       .  A
C2243      C2248   1.434       .  A
C2243     Br2250   1.913       .  S
C2244      C2245   1.421       .  A
C2245      C2246   1.442       .  A
C2245     Br2252   1.924       .  S
C2246      C2247   1.432       .  A
C2246     Br2251   1.923       .  S
C2247      C2248   1.424       .  A
C2248     Br2249   1.937       .  S
C2253      C2254   1.425       .  A
C2253      C2258   1.436       .  A
C2253     Br2260   1.931       .  S
C2254      C2255   1.422       .  A
C2255      C2256   1.421       .  A
C2255     Br2262   1.934       .  S
C2256      C2257   1.424       .  A
C2256     Br2261   1.935       .  S
C2257      C2258   1.424       .  A
C2258     Br2259   1.923       .  S
C2263      C2264   1.410       .  A
C2263      C2268   1.421       .  A
C2263     Br2270   1.924       .  S
C2264      C2265   1.405       .  A
C2265      C2266   1.395       .  A
C2265     Br2272   1.933       .  S
C2266      C2267   1.409       .  A
C2266     Br2271   1.918       .  S
C2267      C2268   1.420       .  A
C2268     Br2269   1.914       .  S
C2273      C2274   1.418   1_455  A
C2273      C2278   1.411       .  A
C2273     Br2280   1.925       .  S
C2274      C2275   1.412       .  A
C2275      C2276   1.416       .  A
C2275     Br2282   1.930       .  S
C2276      C2277   1.410   1_655  A
C2276     Br2281   1.921       .  S
C2277      C2278   1.408       .  A
C2278     Br2279   1.927       .  S
C2283      C2284   1.414       .  A
C2283      C2288   1.404       .  A
C2283     Br2290   1.923       .  S
C2284      C2285   1.402   1_655  A
C2285      C2286   1.394       .  A
C2285     Br2292   1.898       .  S
C2286      C2287   1.402   1_455  A
C2286     Br2291   1.927       .  S
C2287      C2288   1.408       .  A
C2288     Br2289   1.926       .  S
C2293      C2294   1.429       .  A
C2293      C2298   1.432       .  A
C2293     Br2300   1.912       .  S
C2294      C2295   1.400       .  A
C2295      C2296   1.424       .  A
C2295     Br2302   1.934       .  S
C2296      C2297   1.435       .  A
C2296     Br2301   1.905       .  S
C2297      C2298   1.415       .  A
C2298     Br2299   1.929       .  S
C2303      C2304   1.423       .  A
C2303      C2308   1.433       .  A
C2303     Br2310   1.933       .  S
C2304      C2305   1.430       .  A
C2305      C2306   1.434       .  A
C2305     Br2312   1.936   1_655  S
C2306      C2307   1.425       .  A
C2306     Br2311   1.926   1_655  S
C2307      C2308   1.428       .  A
C2308     Br2309   1.928       .  S
C2313      C2314   1.403       .  A
C2313      C2318   1.407       .  A
C2313     Br2320   1.915       .  S
C2314      C2315   1.407       .  A
C2315      C2316   1.399       .  A
C2315     Br2322   1.931       .  S
C2316      C2317   1.418       .  A
C2316     Br2321   1.938       .  S
C2317      C2318   1.407       .  A
C2318     Br2319   1.924       .  S
C2323      C2324   1.427       .  A
C2323      C2328   1.446       .  A
C2323     Br2330   1.921       .  S
C2324      C2325   1.410       .  A
C2325      C2326   1.405       .  A
C2325     Br2332   1.933       .  S
C2326      C2327   1.412       .  A
C2326     Br2331   1.927       .  S
C2327      C2328   1.427       .  A
C2328     Br2329   1.920       .  S
C2333      C2334   1.411       .  A
C2333      C2338   1.398       .  A
C2333     Br2340   1.896       .  S
C2334      C2335   1.417       .  A
C2335      C2336   1.416       .  A
C2335     Br2342   1.928       .  S
C2336      C2337   1.406       .  A
C2336     Br2341   1.919       .  S
C2337      C2338   1.398       .  A
C2338     Br2339   1.927       .  S
C2343      C2344   1.413       .  A
C2343      C2348   1.400       .  A
C2343     Br2350   1.914       .  S
C2344      C2345   1.402       .  A
C2345      C2346   1.397       .  A
C2345     Br2352   1.895       .  S
C2346      C2347   1.402       .  A
C2346     Br2351   1.931       .  S
C2347      C2348   1.401       .  A
C2348     Br2349   1.926       .  S
C2353      C2354   1.431       .  A
C2353      C2358   1.437       .  A
C2353     Br2360   1.941       .  S
C2354      C2355   1.433       .  A
C2355      C2356   1.438       .  A
C2355     Br2362   1.935       .  S
C2356      C2357   1.430       .  A
C2356     Br2361   1.936       .  S
C2357      C2358   1.432       .  A
C2358     Br2359   1.943       .  S
C2363      C2364   1.416       .  A
C2363      C2368   1.415       .  A
C2363     Br2370   1.927       .  S
C2364      C2365   1.398       .  A
C2365      C2366   1.390       .  A
C2365     Br2372   1.946       .  S
C2366      C2367   1.420       .  A
C2366     Br2371   1.918       .  S
C2367      C2368   1.408       .  A
C2368     Br2369   1.923       .  S
C2373      C2374   1.414       .  A
C2373      C2378   1.390       .  A
C2373     Br2380   1.937       .  S
C2374      C2375   1.409       .  A
C2375      C2376   1.397       .  A
C2375     Br2382   1.935       .  S
C2376      C2377   1.404       .  A
C2376     Br2381   1.922       .  S
C2377      C2378   1.403       .  A
C2378     Br2379   1.935       .  S
C2383      C2384   1.410       .  A
C2383      C2388   1.425       .  A
C2383     Br2390   1.930       .  S
C2384      C2385   1.436       .  A
C2385      C2386   1.438       .  A
C2385     Br2392   1.919       .  S
C2386      C2387   1.411       .  A
C2386     Br2391   1.924       .  S
C2387      C2388   1.423       .  A
C2388     Br2389   1.912       .  S
C2393      C2394   1.418       .  A
C2393      C2398   1.430       .  A
C2393     Br2400   1.929       .  S
C2394      C2395   1.429       .  A
C2395      C2396   1.437       .  A
C2395     Br2402   1.931   1_556  S
C2396      C2397   1.429       .  A
C2396     Br2401   1.935   1_556  S
C2397      C2398   1.430       .  A
C2398     Br2399   1.924       .  S
C2403      C2404   1.394       .  A
C2403      C2408   1.391       .  A
C2403     Br2410   1.917       .  S
C2404      C2405   1.395       .  A
C2405      C2406   1.405       .  A
C2405     Br2412   1.920       .  S
C2406      C2407   1.420       .  A
C2406     Br2411   1.931       .  S
C2407      C2408   1.399       .  A
C2408     Br2409   1.898       .  S
C2413      C2414   1.431       .  A
C2413      C2418   1.416       .  A
C2413     Br2420   1.923       .  S
C2414      C2415   1.427       .  A
C2415      C2416   1.446       .  A
C2415     Br2422   1.924       .  S
C2416      C2417   1.433       .  A
C2416     Br2421   1.928       .  S
C2417      C2418   1.412       .  A
C2418     Br2419   1.936       .  S
C2423      C2424   1.408       .  A
C2423      C2428   1.423       .  A
C2423     Br2430   1.926       .  S
C2424      C2425   1.398       .  A
C2425      C2426   1.401       .  A
C2425     Br2432   1.920       .  S
C2426      C2427   1.427       .  A
C2426     Br2431   1.944       .  S
C2427      C2428   1.422       .  A
C2428     Br2429   1.925       .  S
C2433      C2434   1.415       .  A
C2433      C2438   1.423       .  A
C2433     Br2440   1.928       .  S
C2434      C2435   1.416       .  A
C2435      C2436   1.412       .  A
C2435     Br2442   1.925       .  S
C2436      C2437   1.408       .  A
C2436     Br2441   1.907       .  S
C2437      C2438   1.416       .  A
C2438     Br2439   1.913       .  S
C2443      C2444   1.400       .  A
C2443      C2448   1.402       .  A
C2443     Br2450   1.916       .  S
C2444      C2445   1.409       .  A
C2445      C2446   1.408       .  A
C2445     Br2452   1.928       .  S
C2446      C2447   1.409       .  A
C2446     Br2451   1.918       .  S
C2447      C2448   1.422       .  A
C2448     Br2449   1.939       .  S
C2453      C2454   1.426       .  A
C2453      C2458   1.420       .  A
C2453     Br2460   1.928       .  S
C2454      C2455   1.424       .  A
C2455      C2456   1.439       .  A
C2455     Br2462   1.924       .  S
C2456      C2457   1.428       .  A
C2456     Br2461   1.930       .  S
C2457      C2458   1.419       .  A
C2458     Br2459   1.939       .  S
C2463      C2464   1.409       .  A
C2463      C2468   1.392       .  A
C2463     Br2470   1.934       .  S
C2464      C2465   1.402       .  A
C2465      C2466   1.403       .  A
C2465     Br2472   1.933       .  S
C2466      C2467   1.413       .  A
C2466     Br2471   1.915       .  S
C2467      C2468   1.405       .  A
C2468     Br2469   1.932   1_565  S
C2473      C2474   1.410       .  A
C2473      C2478   1.428       .  A
C2473     Br2480   1.935       .  S
C2474      C2475   1.432       .  A
C2475      C2476   1.440       .  A
C2475     Br2482   1.922       .  S
C2476      C2477   1.423       .  A
C2476     Br2481   1.931       .  S
C2477      C2478   1.428       .  A
C2478     Br2479   1.891       .  S
C2483      C2484   1.420       .  A
C2483      C2488   1.437       .  A
C2483     Br2490   1.921   1_565  S
C2484      C2485   1.421       .  A
C2485      C2486   1.436       .  A
C2485     Br2492   1.928       .  S
C2486      C2487   1.423       .  A
C2486     Br2491   1.920       .  S
C2487      C2488   1.423       .  A
C2488     Br2489   1.921   1_565  S
C2493      C2494   1.414       .  A
C2493      C2498   1.413       .  A
C2493     Br2500   1.921       .  S
C2494      C2495   1.413       .  A
C2495      C2496   1.421       .  A
C2495     Br2502   1.916       .  S
C2496      C2497   1.411       .  A
C2496     Br2501   1.922       .  S
C2497      C2498   1.408       .  A
C2498     Br2499   1.916       .  S
C2503      C2504   1.422       .  A
C2503      C2508   1.417       .  A
C2503     Br2510   1.927       .  S
C2504      C2505   1.408       .  A
C2505      C2506   1.420       .  A
C2505     Br2512   1.915       .  S
C2506      C2507   1.417       .  A
C2506     Br2511   1.925       .  S
C2507      C2508   1.408       .  A
C2508     Br2509   1.932       .  S
C2513      C2514   1.408       .  A
C2513      C2518   1.403       .  A
C2513     Br2520   1.939       .  S
C2514      C2515   1.416       .  A
C2515      C2516   1.395       .  A
C2515     Br2522   1.936       .  S
C2516      C2517   1.402       .  A
C2516     Br2521   1.920       .  S
C2517      C2518   1.414       .  A
C2518     Br2519   1.911       .  S
C2523      C2524   1.412       .  A
C2523      C2528   1.395       .  A
C2523     Br2530   1.939       .  S
C2524      C2525   1.415       .  A
C2525      C2526   1.398       .  A
C2525     Br2532   1.920       .  S
C2526      C2527   1.399       .  A
C2526     Br2531   1.936       .  S
C2527      C2528   1.408       .  A
C2528     Br2529   1.934       .  S
C2533      C2534   1.420       .  A
C2533      C2538   1.444       .  A
C2533     Br2540   1.929       .  S
C2534      C2535   1.419       .  A
C2535      C2536   1.431       .  A
C2535     Br2542   1.932       .  S
C2536      C2537   1.428       .  A
C2536     Br2541   1.928       .  S
C2537      C2538   1.437       .  A
C2538     Br2539   1.934       .  S
C2543      C2544   1.433       .  A
C2543      C2548   1.439   1_455  A
C2543     Br2550   1.935       .  S
C2544      C2545   1.439       .  A
C2545      C2546   1.441   1_455  A
C2545     Br2552   1.933       .  S
C2546      C2547   1.421       .  A
C2546     Br2551   1.931       .  S
C2547      C2548   1.423       .  A
C2548     Br2549   1.923       .  S
C2553      C2554   1.408       .  A
C2553      C2558   1.400       .  A
C2553     Br2560   1.935       .  S
C2554      C2555   1.424       .  A
C2555      C2556   1.426       .  A
C2555     Br2562   1.929       .  S
C2556      C2557   1.415       .  A
C2556     Br2561   1.929       .  S
C2557      C2558   1.429       .  A
C2558     Br2559   1.942       .  S
C2563      C2564   1.425       .  A
C2563      C2568   1.404       .  A
C2563     Br2570   1.929       .  S
C2564      C2565   1.400       .  A
C2565      C2566   1.375       .  A
C2565     Br2572   1.942       .  S
C2566      C2567   1.417       .  A
C2566     Br2571   1.941       .  S
C2567      C2568   1.400       .  A
C2568     Br2569   1.930       .  S
C2573      C2574   1.412       .  A
C2573      C2578   1.412       .  A
C2573     Br2580   1.901       .  S
C2574      C2575   1.407       .  A
C2575      C2576   1.419       .  A
C2575     Br2582   1.921       .  S
C2576      C2577   1.425       .  A
C2576     Br2581   1.923       .  S
C2577      C2578   1.404       .  A
C2578     Br2579   1.924       .  S
C2583      C2584   1.412       .  A
C2583      C2588   1.395       .  A
C2583     Br2590   1.937       .  S
C2584      C2585   1.397       .  A
C2585      C2586   1.392       .  A
C2585     Br2592   1.932       .  S
C2586      C2587   1.403       .  A
C2586     Br2591   1.904       .  S
C2587      C2588   1.407       .  A
C2588     Br2589   1.928       .  S
C2593      C2594   1.418       .  A
C2593      C2598   1.423       .  A
C2593     Br2600   1.924       .  S
C2594      C2595   1.409       .  A
C2595      C2596   1.395       .  A
C2595     Br2602   1.929       .  S
C2596      C2597   1.394       .  A
C2596     Br2601   1.897       .  S
C2597      C2598   1.411       .  A
C2598     Br2599   1.915       .  S
C2603      C2604   1.437       .  A
C2603      C2608   1.435       .  A
C2603     Br2610   1.891       .  S
C2604      C2605   1.413       .  A
C2605      C2606   1.433       .  A
C2605     Br2612   1.928       .  S
C2606      C2607   1.429       .  A
C2606     Br2611   1.912       .  S
C2607      C2608   1.405       .  A
C2608     Br2609   1.926       .  S
C2613      C2614   1.413       .  A
C2613      C2618   1.411       .  A
C2613     Br2620   1.927       .  S
C2614      C2615   1.410       .  A
C2615      C2616   1.415       .  A
C2615     Br2622   1.923       .  S
C2616      C2617   1.408       .  A
C2616     Br2621   1.923       .  S
C2617      C2618   1.403       .  A
C2618     Br2619   1.916       .  S
C2623      C2624   1.414       .  A
C2623      C2628   1.411       .  A
C2623     Br2630   1.924       .  S
C2624      C2625   1.411       .  A
C2625      C2626   1.416       .  A
C2625     Br2632   1.921       .  S
C2626      C2627   1.412       .  A
C2626     Br2631   1.928       .  S
C2627      C2628   1.409       .  A
C2628     Br2629   1.930       .  S
C2633      C2634   1.399       .  A
C2633      C2638   1.403       .  A
C2633     Br2640   1.925       .  S
C2634      C2635   1.402       .  A
C2635      C2636   1.392       .  A
C2635     Br2642   1.922       .  S
C2636      C2637   1.414       .  A
C2636     Br2641   1.937       .  S
C2637      C2638   1.424       .  A
C2638     Br2639   1.933       .  S
C2643      C2644   1.436       .  A
C2643      C2648   1.442       .  A
C2643     Br2650   1.928       .  S
C2644      C2645   1.408       .  A
C2645      C2646   1.409       .  A
C2645     Br2652   1.931       .  S
C2646      C2647   1.427       .  A
C2646     Br2651   1.924       .  S
C2647      C2648   1.421       .  A
C2648     Br2649   1.926       .  S
C2653      C2654   1.428       .  A
C2653      C2658   1.393       .  A
C2653     Br2660   1.942       .  S
C2654      C2655   1.414       .  A
C2655      C2656   1.421       .  A
C2655     Br2662   1.921       .  S
C2656      C2657   1.414       .  A
C2656     Br2661   1.925       .  S
C2657      C2658   1.402       .  A
C2658     Br2659   1.937       .  S
C2663      C2664   1.415       .  A
C2663      C2668   1.414       .  A
C2663     Br2670   1.931       .  S
C2664      C2665   1.408       .  A
C2665      C2666   1.403       .  A
C2665     Br2672   1.936       .  S
C2666      C2667   1.419       .  A
C2666     Br2671   1.938       .  S
C2667      C2668   1.414       .  A
C2668     Br2669   1.932       .  S
C2673      C2674   1.395       .  A
C2673      C2678   1.396       .  A
C2673     Br2680   1.906       .  S
C2674      C2675   1.418       .  A
C2675      C2676   1.425       .  A
C2675     Br2682   1.916       .  S
C2676      C2677   1.415       .  A
C2676     Br2681   1.925   1_545  S
C2677      C2678   1.415       .  A
C2678     Br2679   1.921       .  S
C2683      C2684   1.404       .  A
C2683      C2688   1.399       .  A
C2683     Br2690   1.926       .  S
C2684      C2685   1.400       .  A
C2685      C2686   1.409       .  A
C2685     Br2692   1.924       .  S
C2686      C2687   1.419       .  A
C2686     Br2691   1.919       .  S
C2687      C2688   1.408       .  A
C2688     Br2689   1.907       .  S
C2693      C2694   1.423       .  A
C2693      C2698   1.429       .  A
C2693     Br2700   1.930       .  S
C2694      C2695   1.424       .  A
C2695      C2696   1.438       .  A
C2695     Br2702   1.919       .  S
C2696      C2697   1.431       .  A
C2696     Br2701   1.936       .  S
C2697      C2698   1.426       .  A
C2698     Br2699   1.934       .  S
C2703      C2704   1.413       .  A
C2703      C2708   1.422   1_565  A
C2703     Br2710   1.932       .  S
C2704      C2705   1.426       .  A
C2705      C2706   1.434       .  A
C2705     Br2712   1.924       .  S
C2706      C2707   1.423   1_565  A
C2706     Br2711   1.931       .  S
C2707      C2708   1.428       .  A
C2708     Br2709   1.918       .  S
C2713      C2714   1.422       .  A
C2713      C2718   1.396       .  A
C2713     Br2720   1.928       .  S
C2714      C2715   1.414       .  A
C2715      C2716   1.425       .  A
C2715     Br2722   1.922       .  S
C2716      C2717   1.414       .  A
C2716     Br2721   1.922       .  S
C2717      C2718   1.402       .  A
C2718     Br2719   1.937       .  S
C2723      C2724   1.400       .  A
C2723      C2728   1.402       .  A
C2723     Br2730   1.927       .  S
C2724      C2725   1.403       .  A
C2725      C2726   1.390       .  A
C2725     Br2732   1.902       .  S
C2726      C2727   1.393       .  A
C2726     Br2731   1.922       .  S
C2727      C2728   1.411       .  A
C2728     Br2729   1.919       .  S
C2733      C2734   1.409       .  A
C2733      C2738   1.409       .  A
C2733     Br2740   1.940       .  S
C2734      C2735   1.423       .  A
C2735      C2736   1.443       .  A
C2735     Br2742   1.920       .  S
C2736      C2737   1.424       .  A
C2736     Br2741   1.922       .  S
C2737      C2738   1.435       .  A
C2738     Br2739   1.948       .  S
C2743      C2744   1.401       .  A
C2743      C2748   1.409       .  A
C2743     Br2750   1.928       .  S
C2744      C2745   1.409       .  A
C2745      C2746   1.419       .  A
C2745     Br2752   1.922       .  S
C2746      C2747   1.416       .  A
C2746     Br2751   1.913       .  S
C2747      C2748   1.414       .  A
C2748     Br2749   1.890       .  S
C2753      C2754   1.400       .  A
C2753      C2758   1.401       .  A
C2753     Br2760   1.930       .  S
C2754      C2755   1.407       .  A
C2755      C2756   1.394       .  A
C2755     Br2762   1.932       .  S
C2756      C2757   1.410       .  A
C2756     Br2761   1.935       .  S
C2757      C2758   1.411       .  A
C2758     Br2759   1.913       .  S
C2763      C2764   1.412       .  A
C2763      C2768   1.413       .  A
C2763     Br2770   1.937       .  S
C2764      C2765   1.436       .  A
C2765      C2766   1.443       .  A
C2765     Br2772   1.926       .  S
C2766      C2767   1.418       .  A
C2766     Br2771   1.926       .  S
C2767      C2768   1.422       .  A
C2768     Br2769   1.904       .  S
C2773      C2774   1.415       .  A
C2773      C2778   1.416       .  A
C2773     Br2780   1.913       .  S
C2774      C2775   1.432       .  A
C2775      C2776   1.419       .  A
C2775     Br2782   1.928       .  S
C2776      C2777   1.396       .  A
C2776     Br2781   1.917       .  S
C2777      C2778   1.403       .  A
C2778     Br2779   1.921       .  S
C2783      C2784   1.414       .  A
C2783      C2788   1.404       .  A
C2783     Br2790   1.933       .  S
C2784      C2785   1.412       .  A
C2785      C2786   1.399       .  A
C2785     Br2792   1.914       .  S
C2786      C2787   1.397       .  A
C2786     Br2791   1.910       .  S
C2787      C2788   1.410       .  A
C2788     Br2789   1.925       .  S
C2793      C2794   1.416       .  A
C2793      C2798   1.415       .  A
C2793     Br2800   1.925       .  S
C2794      C2795   1.413       .  A
C2795      C2796   1.416       .  A
C2795     Br2802   1.911       .  S
C2796      C2797   1.408       .  A
C2796     Br2801   1.925       .  S
C2797      C2798   1.405       .  A
C2798     Br2799   1.918       .  S
C2803      C2804   1.406       .  A
C2803      C2808   1.416       .  A
C2803     Br2810   1.920       .  S
C2804      C2805   1.410       .  A
C2805      C2806   1.412   1_554  A
C2805     Br2812   1.913   1_554  S
C2806      C2807   1.409   1_556  A
C2806     Br2811   1.931       .  S
C2807      C2808   1.416       .  A
C2808     Br2809   1.923       .  S
C2813      C2814   1.403       .  A
C2813      C2818   1.399       .  A
C2813     Br2820   1.923       .  S
C2814      C2815   1.409       .  A
C2815      C2816   1.392       .  A
C2815     Br2822   1.929   1_556  S
C2816      C2817   1.410       .  A
C2816     Br2821   1.940       .  S
C2817      C2818   1.416       .  A
C2818     Br2819   1.938       .  S
C2823      C2824   1.432       .  A
C2823      C2828   1.438       .  A
C2823     Br2830   1.927       .  S
C2824      C2825   1.429       .  A
C2825      C2826   1.426       .  A
C2825     Br2832   1.939       .  S
C2826      C2827   1.419       .  A
C2826     Br2831   1.938       .  S
C2827      C2828   1.417       .  A
C2828     Br2829   1.927       .  S
C2833      C2834   1.431       .  A
C2833      C2838   1.432       .  A
C2833     Br2840   1.930       .  S
C2834      C2835   1.433       .  A
C2835      C2836   1.437       .  A
C2835     Br2842   1.936       .  S
C2836      C2837   1.426       .  A
C2836     Br2841   1.932   1_455  S
C2837      C2838   1.422       .  A
C2838     Br2839   1.937       .  S
C2843      C2844   1.421   1_554  A
C2843      C2848   1.431       .  A
C2843     Br2850   1.931       .  S
C2844      C2845   1.436       .  A
C2845      C2846   1.435   1_556  A
C2845     Br2852   1.924       .  S
C2846      C2847   1.412       .  A
C2846     Br2851   1.933       .  S
C2847      C2848   1.422       .  A
C2848     Br2849   1.918       .  S
C2853      C2854   1.412       .  A
C2853      C2858   1.417       .  A
C2853     Br2860   1.911       .  S
C2854      C2855   1.410       .  A
C2855      C2856   1.404       .  A
C2855     Br2862   1.921       .  S
C2856      C2857   1.409       .  A
C2856     Br2861   1.911       .  S
C2857      C2858   1.401       .  A
C2858     Br2859   1.913       .  S
C2863      C2864   1.410       .  A
C2863      C2868   1.420       .  A
C2863     Br2870   1.914       .  S
C2864      C2865   1.407       .  A
C2865      C2866   1.407       .  A
C2865     Br2872   1.914       .  S
C2866      C2867   1.407       .  A
C2866     Br2871   1.916       .  S
C2867      C2868   1.414       .  A
C2868     Br2869   1.924       .  S
C2873      C2874   1.394       .  A
C2873      C2878   1.391       .  A
C2873     Br2880   1.919       .  S
C2874      C2875   1.407       .  A
C2875      C2876   1.392       .  A
C2875     Br2882   1.933       .  S
C2876      C2877   1.406       .  A
C2876     Br2881   1.926       .  S
C2877      C2878   1.417       .  A
C2878     Br2879   1.937       .  S
C2883      C2884   1.414       .  A
C2883      C2888   1.406       .  A
C2883     Br2890   1.931       .  S
C2884      C2885   1.405       .  A
C2885      C2886   1.386       .  A
C2885     Br2892   1.929       .  S
C2886      C2887   1.401       .  A
C2886     Br2891   1.915       .  S
C2887      C2888   1.409       .  A
C2888     Br2889   1.934       .  S
C2893      C2894   1.422       .  A
C2893      C2898   1.439       .  A
C2893     Br2900   1.916       .  S
C2894      C2895   1.425       .  A
C2895      C2896   1.435       .  A
C2895     Br2902   1.931       .  S
C2896      C2897   1.428       .  A
C2896     Br2901   1.935       .  S
C2897      C2898   1.426       .  A
C2898     Br2899   1.929       .  S
C2903      C2904   1.393       .  A
C2903      C2908   1.404       .  A
C2903     Br2910   1.917       .  S
C2904      C2905   1.398       .  A
C2905      C2906   1.417       .  A
C2905     Br2912   1.913       .  S
C2906      C2907   1.427       .  A
C2906     Br2911   1.926       .  S
C2907      C2908   1.415       .  A
C2908     Br2909   1.899       .  S
C2913      C2914   1.411       .  A
C2913      C2918   1.407       .  A
C2913     Br2920   1.939       .  S
C2914      C2915   1.404       .  A
C2915      C2916   1.404       .  A
C2915     Br2922   1.933       .  S
C2916      C2917   1.418       .  A
C2916     Br2921   1.922       .  S
C2917      C2918   1.419       .  A
C2918     Br2919   1.933       .  S
C2923      C2924   1.411       .  A
C2923      C2928   1.431       .  A
C2923     Br2930   1.928       .  S
C2924      C2925   1.421       .  A
C2925      C2926   1.436       .  A
C2925     Br2932   1.925       .  S
C2926      C2927   1.427       .  A
C2926     Br2931   1.926       .  S
C2927      C2928   1.438       .  A
C2928     Br2929   1.937       .  S
C2933      C2934   1.407       .  A
C2933      C2938   1.402       .  A
C2933     Br2940   1.927       .  S
C2934      C2935   1.393       .  A
C2935      C2936   1.399       .  A
C2935     Br2942   1.919       .  S
C2936      C2937   1.412       .  A
C2936     Br2941   1.925       .  S
C2937      C2938   1.405       .  A
C2938     Br2939   1.928       .  S
C2943      C2944   1.414       .  A
C2943      C2948   1.424       .  A
C2943     Br2950   1.923       .  S
C2944      C2945   1.403       .  A
C2945      C2946   1.399       .  A
C2945     Br2952   1.915       .  S
C2946      C2947   1.419       .  A
C2946     Br2951   1.938       .  S
C2947      C2948   1.416       .  A
C2948     Br2949   1.920       .  S
C2953      C2954   1.426       .  A
C2953      C2958   1.429       .  A
C2953     Br2960   1.938       .  S
C2954      C2955   1.418       .  A
C2955      C2956   1.430       .  A
C2955     Br2962   1.936       .  S
C2956      C2957   1.434       .  A
C2956     Br2961   1.935       .  S
C2957      C2958   1.430       .  A
C2958     Br2959   1.935       .  S
C2963      C2964   1.423   1_556  A
C2963      C2968   1.414       .  A
C2963     Br2970   1.924       .  S
C2964      C2965   1.424       .  A
C2965      C2966   1.412       .  A
C2965     Br2972   1.911       .  S
C2966      C2967   1.394   1_554  A
C2966     Br2971   1.920       .  S
C2967      C2968   1.401       .  A
C2968     Br2969   1.913       .  S
C2973      C2974   1.432       .  A
C2973      C2978   1.434       .  A
C2973     Br2980   1.924       .  S
C2974      C2975   1.438       .  A
C2975      C2976   1.440       .  A
C2975     Br2982   1.926       .  S
C2976      C2977   1.413       .  A
C2976     Br2981   1.925       .  S
C2977      C2978   1.420       .  A
C2978     Br2979   1.936       .  S
C2983      C2984   1.403       .  A
C2983      C2988   1.408       .  A
C2983     Br2990   1.928       .  S
C2984      C2985   1.413       .  A
C2985      C2986   1.418       .  A
C2985     Br2992   1.926       .  S
C2986      C2987   1.413       .  A
C2986     Br2991   1.929       .  S
C2987      C2988   1.417       .  A
C2988     Br2989   1.923       .  S
C2993      C2994   1.421       .  A
C2993      C2998   1.433       .  A
C2993     Br3000   1.925       .  S
C2994      C2995   1.416       .  A
C2995      C2996   1.428       .  A
C2995     Br3002   1.919       .  S
C2996      C2997   1.421       .  A
C2996     Br3001   1.925       .  S
C2997      C2998   1.421       .  A
C2998     Br2999   1.930       .  S
C3003      C3004   1.413       .  A
C3003      C3008   1.395       .  A
C3003     Br3010   1.931       .  S
C3004      C3005   1.406       .  A
C3005      C3006   1.398       .  A
C3005     Br3012   1.931       .  S
C3006      C3007   1.405       .  A
C3006     Br3011   1.919       .  S
C3007      C3008   1.404       .  A
C3008     Br3009   1.936       .  S
C3013      C3014   1.412       .  A
C3013      C3018   1.393       .  A
C3013     Br3020   1.931       .  S
C3014      C3015   1.428       .  A
C3015      C3016   1.391       .  A
C3015     Br3022   1.936       .  S
C3016      C3017   1.390       .  A
C3016     Br3021   1.922       .  S
C3017      C3018   1.405       .  A
C3018     Br3019   1.921       .  S
C3023      C3024   1.423       .  A
C3023      C3028   1.443       .  A
C3023     Br3030   1.924       .  S
C3024      C3025   1.424       .  A
C3025      C3026   1.424       .  A
C3025     Br3032   1.941       .  S
C3026      C3027   1.427       .  A
C3026     Br3031   1.934       .  S
C3027      C3028   1.431       .  A
C3028     Br3029   1.929       .  S
C3033      C3034   1.414       .  A
C3033      C3038   1.405       .  A
C3033     Br3040   1.947       .  S
C3034      C3035   1.418       .  A
C3035      C3036   1.422       .  A
C3035     Br3042   1.924       .  S
C3036      C3037   1.413       .  A
C3036     Br3041   1.924       .  S
C3037      C3038   1.425       .  A
C3038     Br3039   1.942       .  S
C3043      C3044   1.414       .  A
C3043      C3048   1.401       .  A
C3043     Br3050   1.927       .  S
C3044      C3045   1.409       .  A
C3045      C3046   1.422       .  A
C3045     Br3052   1.928       .  S
C3046      C3047   1.430       .  A
C3046     Br3051   1.932       .  S
C3047      C3048   1.423       .  A
C3048     Br3049   1.950       .  S
C3053      C3054   1.435       .  A
C3053      C3058   1.434       .  A
C3053     Br3060   1.931       .  S
C3054      C3055   1.436       .  A
C3055      C3056   1.441       .  A
C3055     Br3062   1.936       .  S
C3056      C3057   1.421       .  A
C3056     Br3061   1.927       .  S
C3057      C3058   1.413       .  A
C3058     Br3059   1.929       .  S
C3063      C3064   1.412       .  A
C3063      C3068   1.391       .  A
C3063     Br3070   1.935       .  S
C3064      C3065   1.413       .  A
C3065      C3066   1.407       .  A
C3065     Br3072   1.927       .  S
C3066      C3067   1.410       .  A
C3066     Br3071   1.930       .  S
C3067      C3068   1.403       .  A
C3068     Br3069   1.929       .  S
C3073      C3074   1.426       .  A
C3073      C3078   1.443       .  A
C3073     Br3080   1.929       .  S
C3074      C3075   1.429       .  A
C3075      C3076   1.429       .  A
C3075     Br3082   1.936       .  S
C3076      C3077   1.428       .  A
C3076     Br3081   1.939       .  S
C3077      C3078   1.428       .  A
C3078     Br3079   1.924       .  S
C3083      C3084   1.406       .  A
C3083      C3088   1.392       .  A
C3083     Br3090   1.928       .  S
C3084      C3085   1.414       .  A
C3085      C3086   1.429       .  A
C3085     Br3092   1.919       .  S
C3086      C3087   1.418       .  A
C3086     Br3091   1.920       .  S
C3087      C3088   1.414       .  A
C3088     Br3089   1.932       .  S
C3093      C3094   1.422       .  A
C3093      C3098   1.436       .  A
C3093     Br3100   1.931       .  S
C3094      C3095   1.425       .  A
C3095      C3096   1.439       .  A
C3095     Br3102   1.932       .  S
C3096      C3097   1.434       .  A
C3096     Br3101   1.932       .  S
C3097      C3098   1.433       .  A
C3098     Br3099   1.931       .  S
C3103      C3104   1.414       .  A
C3103      C3108   1.421       .  A
C3103     Br3110   1.929       .  S
C3104      C3105   1.409       .  A
C3105      C3106   1.406       .  A
C3105     Br3112   1.918       .  S
C3106      C3107   1.407       .  A
C3106     Br3111   1.918       .  S
C3107      C3108   1.414       .  A
C3108     Br3109   1.910       .  S
C3113      C3114   1.412       .  A
C3113      C3118   1.405       .  A
C3113     Br3120   1.922       .  S
C3114      C3115   1.411       .  A
C3115      C3116   1.420       .  A
C3115     Br3122   1.915       .  S
C3116      C3117   1.415       .  A
C3116     Br3121   1.925       .  S
C3117      C3118   1.413       .  A
C3118     Br3119   1.934       .  S
C3123      C3124   1.419       .  A
C3123      C3128   1.419       .  A
C3123     Br3130   1.911       .  S
C3124      C3125   1.421       .  A
C3125      C3126   1.411       .  A
C3125     Br3132   1.933       .  S
C3126      C3127   1.408       .  A
C3126     Br3131   1.918       .  S
C3127      C3128   1.404       .  A
C3128     Br3129   1.921       .  S
C3133      C3134   1.409       .  A
C3133      C3138   1.409       .  A
C3133     Br3140   1.924       .  S
C3134      C3135   1.406       .  A
C3135      C3136   1.385       .  A
C3135     Br3142   1.935       .  S
C3136      C3137   1.406       .  A
C3136     Br3141   1.930       .  S
C3137      C3138   1.408       .  A
C3138     Br3139   1.928       .  S
C3143      C3144   1.419       .  A
C3143      C3148   1.418       .  A
C3143     Br3150   1.934       .  S
C3144      C3145   1.432       .  A
C3145      C3146   1.441       .  A
C3145     Br3152   1.929       .  S
C3146      C3147   1.421       .  A
C3146     Br3151   1.925       .  S
C3147      C3148   1.428       .  A
C3148     Br3149   1.940       .  S
C3153      C3154   1.408       .  A
C3153      C3158   1.386       .  A
C3153     Br3160   1.930       .  S
C3154      C3155   1.417       .  A
C3155      C3156   1.439       .  A
C3155     Br3162   1.922       .  S
C3156      C3157   1.428       .  A
C3156     Br3161   1.923       .  S
C3157      C3158   1.411       .  A
C3158     Br3159   1.928       .  S
C3163      C3164   1.423       .  A
C3163      C3168   1.430       .  A
C3163     Br3170   1.935       .  S
C3164      C3165   1.425       .  A
C3165      C3166   1.426       .  A
C3165     Br3172   1.925       .  S
C3166      C3167   1.418       .  A
C3166     Br3171   1.930       .  S
C3167      C3168   1.427       .  A
C3168     Br3169   1.924       .  S
C3173      C3174   1.417       .  A
C3173      C3178   1.433       .  A
C3173     Br3180   1.921       .  S
C3174      C3175   1.416       .  A
C3175      C3176   1.402       .  A
C3175     Br3182   1.932       .  S
C3176      C3177   1.420       .  A
C3176     Br3181   1.943       .  S
C3177      C3178   1.423       .  A
C3178     Br3179   1.927       .  S
C3183      C3184   1.406       .  A
C3183      C3188   1.419       .  A
C3183     Br3190   1.913       .  S
C3184      C3185   1.409       .  A
C3185      C3186   1.416       .  A
C3185     Br3192   1.929       .  S
C3186      C3187   1.417       .  A
C3186     Br3191   1.912       .  S
C3187      C3188   1.414       .  A
C3188     Br3189   1.917       .  S
C3193      C3194   1.408       .  A
C3193      C3198   1.414       .  A
C3193     Br3200   1.922       .  S
C3194      C3195   1.407       .  A
C3195      C3196   1.407       .  A
C3195     Br3202   1.927       .  S
C3196      C3197   1.408       .  A
C3196     Br3201   1.913       .  S
C3197      C3198   1.411       .  A
C3198     Br3199   1.920       .  S
C3203      C3204   1.409       .  A
C3203      C3208   1.393       .  A
C3203     Br3210   1.929   1_565  S
C3204      C3205   1.404       .  A
C3205      C3206   1.407       .  A
C3205     Br3212   1.930       .  S
C3206      C3207   1.418       .  A
C3206     Br3211   1.933       .  S
C3207      C3208   1.411       .  A
C3208     Br3209   1.940       .  S
C3213      C3214   1.408       .  A
C3213      C3218   1.428       .  A
C3213     Br3220   1.930       .  S
C3214      C3215   1.429       .  A
C3215      C3216   1.426       .  A
C3215     Br3222   1.908       .  S
C3216      C3217   1.407       .  A
C3216     Br3221   1.932       .  S
C3217      C3218   1.429       .  A
C3218     Br3219   1.918       .  S
C3223      C3224   1.418       .  A
C3223      C3228   1.398       .  A
C3223     Br3230   1.932       .  S
C3224      C3225   1.408       .  A
C3225      C3226   1.398       .  A
C3225     Br3232   1.911       .  S
C3226      C3227   1.401       .  A
C3226     Br3231   1.933       .  S
C3227      C3228   1.402       .  A
C3228     Br3229   1.929       .  S
C3233      C3234   1.395   1_455  A
C3233      C3238   1.411       .  A
C3233     Br3240   1.915       .  S
C3234      C3235   1.405       .  A
C3235      C3236   1.417       .  A
C3235     Br3242   1.925       .  S
C3236      C3237   1.422       .  A
C3236     Br3241   1.928       .  S
C3237      C3238   1.419   1_655  A
C3238     Br3239   1.924       .  S
C3243      C3244   1.413   1_556  A
C3243      C3248   1.413   1_556  A
C3243     Br3250   1.907       .  S
C3244      C3245   1.422       .  A
C3245      C3246   1.415       .  A
C3245     Br3252   1.929       .  S
C3246      C3247   1.412       .  A
C3246     Br3251   1.934       .  S
C3247      C3248   1.405       .  A
C3248     Br3249   1.928   1_554  S
C3253      C3254   1.400       .  A
C3253      C3258   1.396       .  A
C3253     Br3260   1.914       .  S
C3254      C3255   1.414       .  A
C3255      C3256   1.406       .  A
C3255     Br3262   1.925       .  S
C3256      C3257   1.399       .  A
C3256     Br3261   1.926       .  S
C3257      C3258   1.402       .  A
C3258     Br3259   1.925       .  S
C3263      C3264   1.422       .  A
C3263      C3268   1.433       .  A
C3263     Br3270   1.918       .  S
C3264      C3265   1.413       .  A
C3265      C3266   1.396       .  A
C3265     Br3272   1.941   1_455  S
C3266      C3267   1.428       .  A
C3266     Br3271   1.948       .  S
C3267      C3268   1.418       .  A
C3268     Br3269   1.926       .  S
C3273      C3274   1.418       .  A
C3273      C3278   1.419       .  A
C3273     Br3280   1.927       .  S
C3274      C3275   1.432       .  A
C3275      C3276   1.409       .  A
C3275     Br3282   1.938       .  S
C3276      C3277   1.404       .  A
C3276     Br3281   1.928       .  S
C3277      C3278   1.407       .  A
C3278     Br3279   1.913       .  S
C3283      C3284   1.421       .  A
C3283      C3288   1.432       .  A
C3283     Br3290   1.936       .  S
C3284      C3285   1.419       .  A
C3285      C3286   1.440       .  A
C3285     Br3292   1.925       .  S
C3286      C3287   1.433       .  A
C3286     Br3291   1.930       .  S
C3287      C3288   1.431       .  A
C3288     Br3289   1.933       .  S
C3293      C3294   1.414       .  A
C3293      C3298   1.416       .  A
C3293     Br3300   1.934       .  S
C3294      C3295   1.406       .  A
C3295      C3296   1.415       .  A
C3295     Br3302   1.930       .  S
C3296      C3297   1.414       .  A
C3296     Br3301   1.903       .  S
C3297      C3298   1.420       .  A
C3298     Br3299   1.928       .  S
C3303      C3304   1.387       .  A
C3303      C3308   1.394   1_545  A
C3303     Br3310   1.925       .  S
C3304      C3305   1.412   1_545  A
C3305      C3306   1.423       .  A
C3305     Br3312   1.925       .  S
C3306      C3307   1.422       .  A
C3306     Br3311   1.927       .  S
C3307      C3308   1.434       .  A
C3308     Br3309   1.939   1_565  S
C3313      C3314   1.407       .  A
C3313      C3318   1.408       .  A
C3313     Br3320   1.931       .  S
C3314      C3315   1.409       .  A
C3315      C3316   1.395       .  A
C3315     Br3322   1.933   1_655  S
C3316      C3317   1.412       .  A
C3316     Br3321   1.940       .  S
C3317      C3318   1.413       .  A
C3318     Br3319   1.923       .  S
C3323      C3324   1.415       .  A
C3323      C3328   1.421       .  A
C3323     Br3330   1.928       .  S
C3324      C3325   1.421       .  A
C3325      C3326   1.436       .  A
C3325     Br3332   1.921       .  S
C3326      C3327   1.430       .  A
C3326     Br3331   1.931       .  S
C3327      C3328   1.425       .  A
C3328     Br3329   1.931       .  S
C3333      C3334   1.414       .  A
C3333      C3338   1.406       .  A
C3333     Br3340   1.924       .  S
C3334      C3335   1.403       .  A
C3335      C3336   1.398       .  A
C3335     Br3342   1.922       .  S
C3336      C3337   1.407       .  A
C3336     Br3341   1.925       .  S
C3337      C3338   1.400       .  A
C3338     Br3339   1.925       .  S
C3343      C3344   1.411       .  A
C3343      C3348   1.418       .  A
C3343     Br3350   1.920   1_556  S
C3344      C3345   1.406       .  A
C3345      C3346   1.400       .  A
C3345     Br3352   1.900       .  S
C3346      C3347   1.405       .  A
C3346     Br3351   1.928       .  S
C3347      C3348   1.414       .  A
C3348     Br3349   1.922   1_556  S
C3353      C3354   1.415       .  A
C3353      C3358   1.437   1_565  A
C3353     Br3360   1.934       .  S
C3354      C3355   1.423       .  A
C3355      C3356   1.439       .  A
C3355     Br3362   1.930       .  S
C3356      C3357   1.432   1_565  A
C3356     Br3361   1.931       .  S
C3357      C3358   1.437       .  A
C3358     Br3359   1.924       .  S
C3363      C3364   1.442       .  A
C3363      C3368   1.410       .  A
C3363     Br3370   1.935       .  S
C3364      C3365   1.418       .  A
C3365      C3366   1.400       .  A
C3365     Br3372   1.913       .  S
C3366      C3367   1.396       .  A
C3366     Br3371   1.922       .  S
C3367      C3368   1.388       .  A
C3368     Br3369   1.925       .  S
C3373      C3374   1.404       .  A
C3373      C3378   1.403       .  A
C3373     Br3380   1.927       .  S
C3374      C3375   1.413       .  A
C3375      C3376   1.388       .  A
C3375     Br3382   1.930       .  S
C3376      C3377   1.405       .  A
C3376     Br3381   1.941       .  S
C3377      C3378   1.412       .  A
C3378     Br3379   1.930       .  S
C3383      C3384   1.445   1_655  A
C3383      C3388   1.427       .  A
C3383     Br3390   1.926       .  S
C3384      C3385   1.422       .  A
C3385      C3386   1.432       .  A
C3385     Br3392   1.931       .  S
C3386      C3387   1.420   1_455  A
C3386     Br3391   1.912       .  S
C3387      C3388   1.402       .  A
C3388     Br3389   1.934       .  S
C3393      C3394   1.410       .  A
C3393      C3398   1.390       .  A
C3393     Br3400   1.927       .  S
C3394      C3395   1.400       .  A
C3395      C3396   1.398       .  A
C3395     Br3402   1.922       .  S
C3396      C3397   1.415       .  A
C3396     Br3401   1.934       .  S
C3397      C3398   1.397       .  A
C3398     Br3399   1.926       .  S
C3403      C3404   1.421       .  A
C3403      C3408   1.424       .  A
C3403     Br3410   1.910       .  S
C3404      C3405   1.394       .  A
C3405      C3406   1.422       .  A
C3405     Br3412   1.934       .  S
C3406      C3407   1.430       .  A
C3406     Br3411   1.875       .  S
C3407      C3408   1.407       .  A
C3408     Br3409   1.914       .  S
C3413      C3414   1.425       .  A
C3413      C3418   1.393       .  A
C3413     Br3420   1.928       .  S
C3414      C3415   1.413       .  A
C3415      C3416   1.427       .  A
C3415     Br3422   1.924       .  S
C3416      C3417   1.421       .  A
C3416     Br3421   1.922       .  S
C3417      C3418   1.399       .  A
C3418     Br3419   1.938       .  S
C3423      C3424   1.438       .  A
C3423      C3428   1.419       .  A
C3423     Br3430   1.940       .  S
C3424      C3425   1.421       .  A
C3425      C3426   1.435       .  A
C3425     Br3432   1.928       .  S
C3426      C3427   1.422       .  A
C3426     Br3431   1.919       .  S
C3427      C3428   1.403       .  A
C3428     Br3429   1.928       .  S
C3433      C3434   1.408       .  A
C3433      C3438   1.405       .  A
C3433     Br3440   1.920       .  S
C3434      C3435   1.413       .  A
C3435      C3436   1.414       .  A
C3435     Br3442   1.916       .  S
C3436      C3437   1.410       .  A
C3436     Br3441   1.931       .  S
C3437      C3438   1.405       .  A
C3438     Br3439   1.915       .  S
C3443      C3444   1.402       .  A
C3443      C3448   1.395       .  A
C3443     Br3450   1.929       .  S
C3444      C3445   1.408       .  A
C3445      C3446   1.387       .  A
C3445     Br3452   1.920       .  S
C3446      C3447   1.394       .  A
C3446     Br3451   1.927       .  S
C3447      C3448   1.410       .  A
C3448     Br3449   1.931       .  S
C3453      C3454   1.418       .  A
C3453      C3458   1.424   1_565  A
C3453     Br3460   1.937       .  S
C3454      C3455   1.432       .  A
C3455      C3456   1.440   1_565  A
C3455     Br3462   1.930   1_455  S
C3456      C3457   1.421       .  A
C3456     Br3461   1.926   1_455  S
C3457      C3458   1.425       .  A
C3458     Br3459   1.922       .  S
C3463      C3464   1.408       .  A
C3463      C3468   1.404       .  A
C3463     Br3470   1.889       .  S
C3464      C3465   1.412       .  A
C3465      C3466   1.403       .  A
C3465     Br3472   1.912       .  S
C3466      C3467   1.402       .  A
C3466     Br3471   1.928   1_545  S
C3467      C3468   1.403       .  A
C3468     Br3469   1.935       .  S
C3473      C3474   1.417   1_565  A
C3473      C3478   1.408   1_565  A
C3473     Br3480   1.916       .  S
C3474      C3475   1.414       .  A
C3475      C3476   1.417       .  A
C3475     Br3482   1.915       .  S
C3476      C3477   1.406       .  A
C3476     Br3481   1.915       .  S
C3477      C3478   1.401       .  A
C3478     Br3479   1.927   1_545  S
C3483      C3484   1.420       .  A
C3483      C3488   1.410       .  A
C3483     Br3490   1.933       .  S
C3484      C3485   1.418       .  A
C3485      C3486   1.397       .  A
C3485     Br3492   1.939       .  S
C3486      C3487   1.405       .  A
C3486     Br3491   1.935   1_565  S
C3487      C3488   1.406       .  A
C3488     Br3489   1.931       .  S
C3493      C3494   1.416       .  A
C3493      C3498   1.430       .  A
C3493     Br3500   1.940       .  S
C3494      C3495   1.427       .  A
C3495      C3496   1.427       .  A
C3495     Br3502   1.939       .  S
C3496      C3497   1.427       .  A
C3496     Br3501   1.937       .  S
C3497      C3498   1.436       .  A
C3498     Br3499   1.936       .  S
C3503      C3504   1.424       .  A
C3503      C3508   1.434       .  A
C3503     Br3510   1.934       .  S
C3504      C3505   1.413       .  A
C3505      C3506   1.427       .  A
C3505     Br3512   1.936       .  S
C3506      C3507   1.432       .  A
C3506     Br3511   1.921       .  S
C3507      C3508   1.429       .  A
C3508     Br3509   1.933       .  S
C3513      C3514   1.396       .  A
C3513      C3518   1.403       .  A
C3513     Br3520   1.930       .  S
C3514      C3515   1.409       .  A
C3515      C3516   1.423       .  A
C3515     Br3522   1.919       .  S
C3516      C3517   1.423       .  A
C3516     Br3521   1.927       .  S
C3517      C3518   1.433       .  A
C3518     Br3519   1.935       .  S
C3523      C3524   1.404       .  A
C3523      C3528   1.394       .  A
C3523     Br3530   1.918       .  S
C3524      C3525   1.410       .  A
C3525      C3526   1.389       .  A
C3525     Br3532   1.938       .  S
C3526      C3527   1.409       .  A
C3526     Br3531   1.937       .  S
C3527      C3528   1.404       .  A
C3528     Br3529   1.923       .  S
C3533      C3534   1.419       .  A
C3533      C3538   1.404       .  A
C3533     Br3540   1.929       .  S
C3534      C3535   1.403       .  A
C3535      C3536   1.402       .  A
C3535     Br3542   1.928       .  S
C3536      C3537   1.410       .  A
C3536     Br3541   1.920       .  S
C3537      C3538   1.394       .  A
C3538     Br3539   1.927       .  S
C3543      C3544   1.415       .  A
C3543      C3548   1.436   1_554  A
C3543     Br3550   1.927   1_545  S
C3544      C3545   1.418       .  A
C3545      C3546   1.436   1_554  A
C3545     Br3552   1.932       .  S
C3546      C3547   1.437       .  A
C3546     Br3551   1.935       .  S
C3547      C3548   1.435       .  A
C3548     Br3549   1.931   1_545  S
C3553      C3554   1.410       .  A
C3553      C3558   1.428       .  A
C3553     Br3560   1.920       .  S
C3554      C3555   1.399       .  A
C3555      C3556   1.396       .  A
C3555     Br3562   1.904   1_554  S
C3556      C3557   1.411       .  A
C3556     Br3561   1.926   1_554  S
C3557      C3558   1.427       .  A
C3558     Br3559   1.923       .  S
C3563      C3564   1.418       .  A
C3563      C3568   1.400       .  A
C3563     Br3570   1.926       .  S
C3564      C3565   1.401       .  A
C3565      C3566   1.398       .  A
C3565     Br3572   1.918       .  S
C3566      C3567   1.407       .  A
C3566     Br3571   1.926       .  S
C3567      C3568   1.402       .  A
C3568     Br3569   1.931       .  S
C3573      C3574   1.428       .  A
C3573      C3578   1.441       .  A
C3573     Br3580   1.930       .  S
C3574      C3575   1.421       .  A
C3575      C3576   1.421       .  A
C3575     Br3582   1.938       .  S
C3576      C3577   1.427       .  A
C3576     Br3581   1.934       .  S
C3577      C3578   1.424       .  A
C3578     Br3579   1.923       .  S
C3583      C3584   1.446       .  A
C3583      C3588   1.435       .  A
C3583     Br3590   1.932       .  S
C3584      C3585   1.425       .  A
C3585      C3586   1.432   1_556  A
C3585     Br3592   1.931       .  S
C3586      C3587   1.420       .  A
C3586     Br3591   1.919       .  S
C3587      C3588   1.407   1_554  A
C3588     Br3589   1.928       .  S
C3593      C3594   1.409       .  A
C3593      C3598   1.401       .  A
C3593     Br3600   1.924       .  S
C3594      C3595   1.404       .  A
C3595      C3596   1.395       .  A
C3595     Br3602   1.920       .  S
C3596      C3597   1.404       .  A
C3596     Br3601   1.922       .  S
C3597      C3598   1.402       .  A
C3598     Br3599   1.923       .  S
C3603      C3604   1.411       .  A
C3603      C3608   1.431       .  A
C3603     Br3610   1.930       .  S
C3604      C3605   1.421       .  A
C3605      C3606   1.428   1_565  A
C3605     Br3612   1.922       .  S
C3606      C3607   1.426       .  A
C3606     Br3611   1.937       .  S
C3607      C3608   1.435   1_545  A
C3608     Br3609   1.937       .  S
C3613      C3614   1.417       .  A
C3613      C3618   1.435       .  A
C3613     Br3620   1.921       .  S
C3614      C3615   1.412       .  A
C3615      C3616   1.378       .  A
C3615     Br3622   1.935       .  S
C3616      C3617   1.402       .  A
C3616     Br3621   1.919       .  S
C3617      C3618   1.420       .  A
C3618     Br3619   1.916       .  S
C3623      C3624   1.405       .  A
C3623      C3628   1.395       .  A
C3623     Br3630   1.934       .  S
C3624      C3625   1.406       .  A
C3625      C3626   1.393       .  A
C3625     Br3632   1.914       .  S
C3626      C3627   1.400       .  A
C3626     Br3631   1.936       .  S
C3627      C3628   1.409       .  A
C3628     Br3629   1.931   1_556  S
C3633      C3634   1.412       .  A
C3633      C3638   1.396       .  A
C3633     Br3640   1.935       .  S
C3634      C3635   1.406       .  A
C3635      C3636   1.405       .  A
C3635     Br3642   1.918       .  S
C3636      C3637   1.416       .  A
C3636     Br3641   1.933       .  S
C3637      C3638   1.405       .  A
C3638     Br3639   1.923       .  S
C3643      C3644   1.423       .  A
C3643      C3648   1.424       .  A
C3643     Br3650   1.933       .  S
C3644      C3645   1.419       .  A
C3645      C3646   1.431       .  A
C3645     Br3652   1.922       .  S
C3646      C3647   1.428       .  A
C3646     Br3651   1.935       .  S
C3647      C3648   1.424       .  A
C3648     Br3649   1.936       .  S
C3653      C3654   1.426       .  A
C3653      C3658   1.400       .  A
C3653     Br3660   1.923       .  S
C3654      C3655   1.421       .  A
C3655      C3656   1.431       .  A
C3655     Br3662   1.927       .  S
C3656      C3657   1.422       .  A
C3656     Br3661   1.927       .  S
C3657      C3658   1.402       .  A
C3658     Br3659   1.936       .  S
C3663      C3664   1.414       .  A
C3663      C3668   1.414       .  A
C3663     Br3670   1.917       .  S
C3664      C3665   1.419       .  A
C3665      C3666   1.411       .  A
C3665     Br3672   1.932       .  S
C3666      C3667   1.404       .  A
C3666     Br3671   1.906       .  S
C3667      C3668   1.407       .  A
C3668     Br3669   1.925       .  S
C3673      C3674   1.406       .  A
C3673      C3678   1.399       .  A
C3673     Br3680   1.926       .  S
C3674      C3675   1.416       .  A
C3675      C3676   1.401       .  A
C3675     Br3682   1.931       .  S
C3676      C3677   1.399       .  A
C3676     Br3681   1.916       .  S
C3677      C3678   1.409       .  A
C3678     Br3679   1.928       .  S
C3683      C3684   1.395       .  A
C3683      C3688   1.390       .  A
C3683     Br3690   1.937       .  S
C3684      C3685   1.401       .  A
C3685      C3686   1.403       .  A
C3685     Br3692   1.924       .  S
C3686      C3687   1.421       .  A
C3686     Br3691   1.935       .  S
C3687      C3688   1.417       .  A
C3688     Br3689   1.920       .  S
C3693      C3694   1.429       .  A
C3693      C3698   1.431       .  A
C3693     Br3700   1.932       .  S
C3694      C3695   1.418       .  A
C3695      C3696   1.434       .  A
C3695     Br3702   1.930   1_545  S
C3696      C3697   1.429       .  A
C3696     Br3701   1.925   1_545  S
C3697      C3698   1.418       .  A
C3698     Br3699   1.931       .  S
C3703      C3704   1.409       .  A
C3703      C3708   1.398       .  A
C3703     Br3710   1.932       .  S
C3704      C3705   1.402       .  A
C3705      C3706   1.402       .  A
C3705     Br3712   1.931       .  S
C3706      C3707   1.417       .  A
C3706     Br3711   1.924       .  S
C3707      C3708   1.412       .  A
C3708     Br3709   1.933       .  S
C3713      C3714   1.395       .  A
C3713      C3718   1.411       .  A
C3713     Br3720   1.925       .  S
C3714      C3715   1.404       .  A
C3715      C3716   1.417       .  A
C3715     Br3722   1.928       .  S
C3716      C3717   1.428       .  A
C3716     Br3721   1.925       .  S
C3717      C3718   1.430       .  A
C3718     Br3719   1.917       .  S
C3723      C3724   1.426       .  A
C3723      C3728   1.436       .  A
C3723     Br3730   1.936       .  S
C3724      C3725   1.411       .  A
C3725      C3726   1.428       .  A
C3725     Br3732   1.933       .  S
C3726      C3727   1.435       .  A
C3726     Br3731   1.927       .  S
C3727      C3728   1.434       .  A
C3728     Br3729   1.937       .  S
C3733      C3734   1.414       .  A
C3733      C3738   1.385       .  A
C3733     Br3740   1.926       .  S
C3734      C3735   1.414       .  A
C3735      C3736   1.431       .  A
C3735     Br3742   1.921       .  S
C3736      C3737   1.420       .  A
C3736     Br3741   1.922       .  S
C3737      C3738   1.409       .  A
C3738     Br3739   1.941       .  S
C3743      C3744   1.415       .  A
C3743      C3748   1.425       .  A
C3743     Br3750   1.934       .  S
C3744      C3745   1.428       .  A
C3745      C3746   1.440       .  A
C3745     Br3752   1.921       .  S
C3746      C3747   1.421       .  A
C3746     Br3751   1.929       .  S
C3747      C3748   1.428       .  A
C3748     Br3749   1.928       .  S
C3753      C3754   1.420       .  A
C3753      C3758   1.413       .  A
C3753     Br3760   1.930       .  S
C3754      C3755   1.415       .  A
C3755      C3756   1.411       .  A
C3755     Br3762   1.915       .  S
C3756      C3757   1.408       .  A
C3756     Br3761   1.924       .  S
C3757      C3758   1.408       .  A
C3758     Br3759   1.927       .  S
C3763      C3764   1.421       .  A
C3763      C3768   1.397       .  A
C3763     Br3770   1.921       .  S
C3764      C3765   1.419       .  A
C3765      C3766   1.422       .  A
C3765     Br3772   1.925       .  S
C3766      C3767   1.413       .  A
C3766     Br3771   1.926       .  S
C3767      C3768   1.395       .  A
C3768     Br3769   1.924       .  S
C3773      C3774   1.411       .  A
C3773      C3778   1.408       .  A
C3773     Br3780   1.927       .  S
C3774      C3775   1.396       .  A
C3775      C3776   1.396       .  A
C3775     Br3782   1.912       .  S
C3776      C3777   1.406       .  A
C3776     Br3781   1.904       .  S
C3777      C3778   1.407       .  A
C3778     Br3779   1.921       .  S
C3783      C3784   1.402       .  A
C3783      C3788   1.393       .  A
C3783     Br3790   1.916       .  S
C3784      C3785   1.406       .  A
C3785      C3786   1.402       .  A
C3785     Br3792   1.928       .  S
C3786      C3787   1.410       .  A
C3786     Br3791   1.931       .  S
C3787      C3788   1.402       .  A
C3788     Br3789   1.926       .  S
C3793      C3794   1.414   1_565  A
C3793      C3798   1.414       .  A
C3793     Br3800   1.915       .  S
C3794      C3795   1.429       .  A
C3795      C3796   1.435   1_545  A
C3795     Br3802   1.917       .  S
C3796      C3797   1.419       .  A
C3796     Br3801   1.929       .  S
C3797      C3798   1.421       .  A
C3798     Br3799   1.928       .  S
C3803      C3804   1.416       .  A
C3803      C3808   1.430       .  A
C3803     Br3810   1.922       .  S
C3804      C3805   1.409       .  A
C3805      C3806   1.388       .  A
C3805     Br3812   1.937       .  S
C3806      C3807   1.414       .  A
C3806     Br3811   1.935       .  S
C3807      C3808   1.420       .  A
C3808     Br3809   1.921       .  S
C3813      C3814   1.413       .  A
C3813      C3818   1.424       .  A
C3813     Br3820   1.926       .  S
C3814      C3815   1.409       .  A
C3815      C3816   1.395       .  A
C3815     Br3822   1.920       .  S
C3816      C3817   1.414       .  A
C3816     Br3821   1.939       .  S
C3817      C3818   1.422       .  A
C3818     Br3819   1.925       .  S
C3823      C3824   1.402       .  A
C3823      C3828   1.406       .  A
C3823     Br3830   1.921       .  S
C3824      C3825   1.395       .  A
C3825      C3826   1.397       .  A
C3825     Br3832   1.917       .  S
C3826      C3827   1.404       .  A
C3826     Br3831   1.907       .  S
C3827      C3828   1.415       .  A
C3828     Br3829   1.928       .  S
C3833      C3834   1.429       .  A
C3833      C3838   1.442       .  A
C3833     Br3840   1.932       .  S
C3834      C3835   1.410       .  A
C3835      C3836   1.417       .  A
C3835     Br3842   1.940       .  S
C3836      C3837   1.442       .  A
C3836     Br3841   1.941       .  S
C3837      C3838   1.428       .  A
C3838     Br3839   1.922       .  S
C3843      C3844   1.443       .  A
C3843      C3848   1.432       .  A
C3843     Br3850   1.934       .  S
C3844      C3845   1.421       .  A
C3845      C3846   1.433   1_556  A
C3845     Br3852   1.932       .  S
C3846      C3847   1.423       .  A
C3846     Br3851   1.911       .  S
C3847      C3848   1.407   1_554  A
C3848     Br3849   1.931       .  S
C3853      C3854   1.432       .  A
C3853      C3858   1.421       .  A
C3853     Br3860   1.927       .  S
C3854      C3855   1.416       .  A
C3855      C3856   1.409       .  A
C3855     Br3862   1.922       .  S
C3856      C3857   1.400       .  A
C3856     Br3861   1.905       .  S
C3857      C3858   1.399       .  A
C3858     Br3859   1.916       .  S
C3863      C3864   1.399       .  A
C3863      C3868   1.401       .  A
C3863     Br3870   1.933       .  S
C3864      C3865   1.406       .  A
C3865      C3866   1.404       .  A
C3865     Br3872   1.933       .  S
C3866      C3867   1.404       .  A
C3866     Br3871   1.901       .  S
C3867      C3868   1.422       .  A
C3868     Br3869   1.930       .  S
C3873      C3874   1.417       .  A
C3873      C3878   1.395       .  A
C3873     Br3880   1.931       .  S
C3874      C3875   1.394       .  A
C3875      C3876   1.395       .  A
C3875     Br3882   1.916       .  S
C3876      C3877   1.409       .  A
C3876     Br3881   1.926       .  S
C3877      C3878   1.397       .  A
C3878     Br3879   1.930       .  S
C3883      C3884   1.424       .  A
C3883      C3888   1.431   1_545  A
C3883     Br3890   1.907       .  S
C3884      C3885   1.411       .  A
C3885      C3886   1.430       .  A
C3885     Br3892   1.922       .  S
C3886      C3887   1.430   1_545  A
C3886     Br3891   1.931       .  S
C3887      C3888   1.416       .  A
C3888     Br3889   1.930       .  S
C3893      C3894   1.417       .  A
C3893      C3898   1.413       .  A
C3893     Br3900   1.913       .  S
C3894      C3895   1.409       .  A
C3895      C3896   1.409       .  A
C3895     Br3902   1.913       .  S
C3896      C3897   1.410       .  A
C3896     Br3901   1.919       .  S
C3897      C3898   1.408       .  A
C3898     Br3899   1.931       .  S
C3903      C3904   1.401       .  A
C3903      C3908   1.415       .  A
C3903     Br3910   1.915       .  S
C3904      C3905   1.402       .  A
C3905      C3906   1.411       .  A
C3905     Br3912   1.926   1_565  S
C3906      C3907   1.419       .  A
C3906     Br3911   1.916   1_565  S
C3907      C3908   1.419       .  A
C3908     Br3909   1.920       .  S
C3913      C3914   1.408       .  A
C3913      C3918   1.398       .  A
C3913     Br3920   1.933   1_545  S
C3914      C3915   1.397       .  A
C3915      C3916   1.396       .  A
C3915     Br3922   1.933       .  S
C3916      C3917   1.416       .  A
C3916     Br3921   1.921       .  S
C3917      C3918   1.411       .  A
C3918     Br3919   1.932       .  S
C3923      C3924   1.423       .  A
C3923      C3928   1.435       .  A
C3923     Br3930   1.937       .  S
C3924      C3925   1.423       .  A
C3925      C3926   1.430       .  A
C3925     Br3932   1.934       .  S
C3926      C3927   1.433       .  A
C3926     Br3931   1.936       .  S
C3927      C3928   1.433       .  A
C3928     Br3929   1.931       .  S
C3933      C3934   1.418   1_455  A
C3933      C3938   1.428       .  A
C3933     Br3940   1.928   1_455  S
C3934      C3935   1.430       .  A
C3935      C3936   1.428   1_655  A
C3935     Br3942   1.931       .  S
C3936      C3937   1.412       .  A
C3936     Br3941   1.928       .  S
C3937      C3938   1.418       .  A
C3938     Br3939   1.913       .  S
C3943      C3944   1.405       .  A
C3943      C3948   1.394       .  A
C3943     Br3950   1.941       .  S
C3944      C3945   1.401       .  A
C3945      C3946   1.401       .  A
C3945     Br3952   1.932       .  S
C3946      C3947   1.420       .  A
C3946     Br3951   1.933       .  S
C3947      C3948   1.419       .  A
C3948     Br3949   1.941       .  S
C3953      C3954   1.414       .  A
C3953      C3958   1.436       .  A
C3953     Br3960   1.927       .  S
C3954      C3955   1.426       .  A
C3955      C3956   1.435   1_554  A
C3955     Br3962   1.924       .  S
C3956      C3957   1.421       .  A
C3956     Br3961   1.930       .  S
C3957      C3958   1.435   1_556  A
C3958     Br3959   1.934       .  S
C3963      C3964   1.409       .  A
C3963      C3968   1.395       .  A
C3963     Br3970   1.908       .  S
C3964      C3965   1.409       .  A
C3965      C3966   1.395       .  A
C3965     Br3972   1.937       .  S
C3966      C3967   1.412       .  A
C3966     Br3971   1.937   1_556  S
C3967      C3968   1.398       .  A
C3968     Br3969   1.932       .  S
C3973      C3974   1.428       .  A
C3973      C3978   1.437       .  A
C3973     Br3980   1.940       .  S
C3974      C3975   1.427       .  A
C3975      C3976   1.435       .  A
C3975     Br3982   1.934       .  S
C3976      C3977   1.431       .  A
C3976     Br3981   1.935       .  S
C3977      C3978   1.432       .  A
C3978     Br3979   1.943       .  S
C3983      C3984   1.408       .  A
C3983      C3988   1.402       .  A
C3983     Br3990   1.906       .  S
C3984      C3985   1.416       .  A
C3985      C3986   1.419       .  A
C3985     Br3992   1.919       .  S
C3986      C3987   1.413       .  A
C3986     Br3991   1.918       .  S
C3987      C3988   1.408       .  A
C3988     Br3989   1.929       .  S
C3993      C3994   1.408       .  A
C3993      C3998   1.432       .  A
C3993     Br4000   1.929       .  S
C3994      C3995   1.431       .  A
C3995      C3996   1.434       .  A
C3995     Br4002   1.919       .  S
C3996      C3997   1.415       .  A
C3996     Br4001   1.931       .  S
C3997      C3998   1.444       .  A
C3998     Br3999   1.930       .  S
C4003      C4004   1.412       .  A
C4003      C4008   1.424       .  A
C4003     Br4010   1.921       .  S
C4004      C4005   1.412       .  A
C4005      C4006   1.400       .  A
C4005     Br4012   1.917       .  S
C4006      C4007   1.408       .  A
C4006     Br4011   1.927       .  S
C4007      C4008   1.412       .  A
C4008     Br4009   1.905       .  S
C4013      C4014   1.403       .  A
C4013      C4018   1.415       .  A
C4013     Br4020   1.917       .  S
C4014      C4015   1.401       .  A
C4015      C4016   1.414       .  A
C4015     Br4022   1.914       .  S
C4016      C4017   1.415       .  A
C4016     Br4021   1.914       .  S
C4017      C4018   1.417       .  A
C4018     Br4019   1.915       .  S
C4023      C4024   1.402       .  A
C4023      C4028   1.398       .  A
C4023     Br4030   1.917       .  S
C4024      C4025   1.422       .  A
C4025      C4026   1.402       .  A
C4025     Br4032   1.939       .  S
C4026      C4027   1.410       .  A
C4026     Br4031   1.939       .  S
C4027      C4028   1.414       .  A
C4028     Br4029   1.941       .  S
C4033      C4034   1.406       .  A
C4033      C4038   1.402       .  A
C4033     Br4040   1.928       .  S
C4034      C4035   1.415       .  A
C4035      C4036   1.396       .  A
C4035     Br4042   1.920       .  S
C4036      C4037   1.405       .  A
C4036     Br4041   1.943       .  S
C4037      C4038   1.409       .  A
C4038     Br4039   1.931       .  S
C4043      C4044   1.407       .  A
C4043      C4048   1.428       .  A
C4043     Br4050   1.934       .  S
C4044      C4045   1.420   1_455  A
C4045      C4046   1.437       .  A
C4045     Br4052   1.927       .  S
C4046      C4047   1.429       .  A
C4046     Br4051   1.929       .  S
C4047      C4048   1.444   1_655  A
C4048     Br4049   1.937       .  S
C4053      C4054   1.417       .  A
C4053      C4058   1.420       .  A
C4053     Br4060   1.924       .  S
C4054      C4055   1.411   1_455  A
C4055      C4056   1.406   1_655  A
C4055     Br4062   1.920       .  S
C4056      C4057   1.406       .  A
C4056     Br4061   1.919   1_456  S
C4057      C4058   1.408       .  A
C4058     Br4059   1.919       .  S
C4063      C4064   1.401       .  A
C4063      C4068   1.406       .  A
C4063     Br4070   1.919       .  S
C4064      C4065   1.403       .  A
C4065      C4066   1.400       .  A
C4065     Br4072   1.921       .  S
C4066      C4067   1.405       .  A
C4066     Br4071   1.910       .  S
C4067      C4068   1.415       .  A
C4068     Br4069   1.927       .  S
C4073      C4074   1.416       .  A
C4073      C4078   1.400       .  A
C4073     Br4080   1.929       .  S
C4074      C4075   1.414       .  A
C4075      C4076   1.392       .  A
C4075     Br4082   1.934       .  S
C4076      C4077   1.397       .  A
C4076     Br4081   1.918   1_655  S
C4077      C4078   1.398       .  A
C4078     Br4079   1.926       .  S
C4083      C4084   1.418       .  A
C4083      C4088   1.427       .  A
C4083     Br4090   1.936       .  S
C4084      C4085   1.423       .  A
C4085      C4086   1.436       .  A
C4085     Br4092   1.936       .  S
C4086      C4087   1.435       .  A
C4086     Br4091   1.935       .  S
C4087      C4088   1.430       .  A
C4088     Br4089   1.928       .  S
C4093      C4094   1.405       .  A
C4093      C4098   1.418       .  A
C4093     Br4100   1.927       .  S
C4094      C4095   1.415       .  A
C4095      C4096   1.435       .  A
C4095     Br4102   1.927       .  S
C4096      C4097   1.437       .  A
C4096     Br4101   1.933       .  S
C4097      C4098   1.428       .  A
C4098     Br4099   1.927       .  S
C4103      C4104   1.419       .  A
C4103      C4108   1.380       .  A
C4103     Br4110   1.927       .  S
C4104      C4105   1.419       .  A
C4105      C4106   1.431       .  A
C4105     Br4112   1.922       .  S
C4106      C4107   1.417       .  A
C4106     Br4111   1.921       .  S
C4107      C4108   1.401       .  A
C4108     Br4109   1.934       .  S
C4113      C4114   1.400       .  A
C4113      C4118   1.404       .  A
C4113     Br4120   1.936       .  S
C4114      C4115   1.409       .  A
C4115      C4116   1.419       .  A
C4115     Br4122   1.924       .  S
C4116      C4117   1.414       .  A
C4116     Br4121   1.919       .  S
C4117      C4118   1.423       .  A
C4118     Br4119   1.918       .  S
C4123      C4124   1.414       .  A
C4123      C4128   1.405       .  A
C4123     Br4130   1.927       .  S
C4124      C4125   1.416       .  A
C4125      C4126   1.402       .  A
C4125     Br4132   1.933       .  S
C4126      C4127   1.408       .  A
C4126     Br4131   1.934   1_554  S
C4127      C4128   1.406       .  A
C4128     Br4129   1.927       .  S
C4133      C4134   1.405       .  A
C4133      C4138   1.404       .  A
C4133     Br4140   1.925       .  S
C4134      C4135   1.396       .  A
C4135      C4136   1.396       .  A
C4135     Br4142   1.922       .  S
C4136      C4137   1.408       .  A
C4136     Br4141   1.919       .  S
C4137      C4138   1.407       .  A
C4138     Br4139   1.903       .  S
C4143      C4144   1.441       .  A
C4143      C4148   1.432       .  A
C4143     Br4150   1.937       .  S
C4144      C4145   1.429       .  A
C4145      C4146   1.443   1_554  A
C4145     Br4152   1.928       .  S
C4146      C4147   1.426       .  A
C4146     Br4151   1.924       .  S
C4147      C4148   1.417   1_556  A
C4148     Br4149   1.938       .  S
C4153      C4154   1.416       .  A
C4153      C4158   1.400       .  A
C4153     Br4160   1.927       .  S
C4154      C4155   1.412       .  A
C4155      C4156   1.421       .  A
C4155     Br4162   1.926       .  S
C4156      C4157   1.420       .  A
C4156     Br4161   1.920       .  S
C4157      C4158   1.405       .  A
C4158     Br4159   1.929       .  S
C4163      C4164   1.418       .  A
C4163      C4168   1.411       .  A
C4163     Br4170   1.901       .  S
C4164      C4165   1.424       .  A
C4165      C4166   1.421       .  A
C4165     Br4172   1.929       .  S
C4166      C4167   1.407       .  A
C4166     Br4171   1.917       .  S
C4167      C4168   1.400       .  A
C4168     Br4169   1.925       .  S
C4173      C4174   1.406       .  A
C4173      C4178   1.392       .  A
C4173     Br4180   1.928       .  S
C4174      C4175   1.412       .  A
C4175      C4176   1.404       .  A
C4175     Br4182   1.931       .  S
C4176      C4177   1.406       .  A
C4176     Br4181   1.928       .  S
C4177      C4178   1.400       .  A
C4178     Br4179   1.920       .  S
C4183      C4184   1.416       .  A
C4183      C4188   1.416       .  A
C4183     Br4190   1.933       .  S
C4184      C4185   1.435       .  A
C4185      C4186   1.439       .  A
C4185     Br4192   1.929       .  S
C4186      C4187   1.419       .  A
C4186     Br4191   1.928       .  S
C4187      C4188   1.428       .  A
C4188     Br4189   1.936       .  S
C4193      C4194   1.415       .  A
C4193      C4198   1.420   1_545  A
C4193     Br4200   1.921       .  S
C4194      C4195   1.418       .  A
C4195      C4196   1.431   1_545  A
C4195     Br4202   1.925       .  S
C4196      C4197   1.422       .  A
C4196     Br4201   1.922       .  S
C4197      C4198   1.420       .  A
C4198     Br4199   1.932       .  S
C4203      C4204   1.413       .  A
C4203      C4208   1.410       .  A
C4203     Br4210   1.925       .  S
C4204      C4205   1.409       .  A
C4205      C4206   1.410       .  A
C4205     Br4212   1.933       .  S
C4206      C4207   1.408       .  A
C4206     Br4211   1.909       .  S
C4207      C4208   1.402       .  A
C4208     Br4209   1.918       .  S
C4213      C4214   1.411       .  A
C4213      C4218   1.406       .  A
C4213     Br4220   1.921       .  S
C4214      C4215   1.412       .  A
C4215      C4216   1.416       .  A
C4215     Br4222   1.921       .  S
C4216      C4217   1.409       .  A
C4216     Br4221   1.911       .  S
C4217      C4218   1.409       .  A
C4218     Br4219   1.920       .  S
C4223      C4224   1.397       .  A
C4223      C4228   1.388       .  A
C4223     Br4230   1.922       .  S
C4224      C4225   1.402       .  A
C4225      C4226   1.389       .  A
C4225     Br4232   1.922       .  S
C4226      C4227   1.411       .  A
C4226     Br4231   1.934       .  S
C4227      C4228   1.411       .  A
C4228     Br4229   1.921       .  S
C4233      C4234   1.400       .  A
C4233      C4238   1.394       .  A
C4233     Br4240   1.924       .  S
C4234      C4235   1.410       .  A
C4235      C4236   1.394       .  A
C4235     Br4242   1.925       .  S
C4236      C4237   1.409       .  A
C4236     Br4241   1.936       .  S
C4237      C4238   1.407       .  A
C4238     Br4239   1.926       .  S
C4243      C4244   1.426       .  A
C4243      C4248   1.432       .  A
C4243     Br4250   1.935       .  S
C4244      C4245   1.432       .  A
C4245      C4246   1.435   1_455  A
C4245     Br4252   1.929       .  S
C4246      C4247   1.417       .  A
C4246     Br4251   1.929       .  S
C4247      C4248   1.427   1_655  A
C4248     Br4249   1.936   1_455  S
C4253      C4254   1.412       .  A
C4253      C4258   1.412       .  A
C4253     Br4260   1.922       .  S
C4254      C4255   1.412       .  A
C4255      C4256   1.405       .  A
C4255     Br4262   1.910       .  S
C4256      C4257   1.402       .  A
C4256     Br4261   1.920       .  S
C4257      C4258   1.407       .  A
C4258     Br4259   1.912       .  S
C4263      C4264   1.405       .  A
C4263      C4268   1.419       .  A
C4263     Br4270   1.915       .  S
C4264      C4265   1.413   1_655  A
C4265      C4266   1.412   1_455  A
C4265     Br4272   1.883       .  S
C4266      C4267   1.403       .  A
C4266     Br4271   1.930   1_655  S
C4267      C4268   1.419       .  A
C4268     Br4269   1.911       .  S
C4273      C4274   1.406       .  A
C4273      C4278   1.401       .  A
C4273     Br4280   1.929       .  S
C4274      C4275   1.407       .  A
C4275      C4276   1.404       .  A
C4275     Br4282   1.930       .  S
C4276      C4277   1.411       .  A
C4276     Br4281   1.928       .  S
C4277      C4278   1.418       .  A
C4278     Br4279   1.939       .  S
C4283      C4284   1.438       .  A
C4283      C4288   1.440       .  A
C4283     Br4290   1.932       .  S
C4284      C4285   1.436       .  A
C4285      C4286   1.442       .  A
C4285     Br4292   1.937       .  S
C4286      C4287   1.428       .  A
C4286     Br4291   1.935       .  S
C4287      C4288   1.419       .  A
C4288     Br4289   1.936       .  S
C4293      C4294   1.411       .  A
C4293      C4298   1.432       .  A
C4293     Br4300   1.919       .  S
C4294      C4295   1.409       .  A
C4295      C4296   1.435       .  A
C4295     Br4302   1.929       .  S
C4296      C4297   1.440       .  A
C4296     Br4301   1.927       .  S
C4297      C4298   1.431       .  A
C4298     Br4299   1.930       .  S
C4303      C4304   1.412       .  A
C4303      C4308   1.402       .  A
C4303     Br4310   1.928       .  S
C4304      C4305   1.411       .  A
C4305      C4306   1.423       .  A
C4305     Br4312   1.915       .  S
C4306      C4307   1.421       .  A
C4306     Br4311   1.928       .  S
C4307      C4308   1.414       .  A
C4308     Br4309   1.927       .  S
C4313      C4314   1.399       .  A
C4313      C4318   1.399       .  A
C4313     Br4320   1.929       .  S
C4314      C4315   1.396       .  A
C4315      C4316   1.406       .  A
C4315     Br4322   1.917       .  S
C4316      C4317   1.419       .  A
C4316     Br4321   1.928       .  S
C4317      C4318   1.408       .  A
C4318     Br4319   1.899       .  S
C4323      C4324   1.410       .  A
C4323      C4328   1.399       .  A
C4323     Br4330   1.927       .  S
C4324      C4325   1.413       .  A
C4325      C4326   1.406       .  A
C4325     Br4332   1.934       .  S
C4326      C4327   1.412       .  A
C4326     Br4331   1.933       .  S
C4327      C4328   1.411       .  A
C4328     Br4329   1.937       .  S
C4333      C4334   1.421       .  A
C4333      C4338   1.437       .  A
C4333     Br4340   1.919       .  S
C4334      C4335   1.415       .  A
C4335      C4336   1.437       .  A
C4335     Br4342   1.924       .  S
C4336      C4337   1.428       .  A
C4336     Br4341   1.922       .  S
C4337      C4338   1.419       .  A
C4338     Br4339   1.923       .  S
C4343      C4344   1.417       .  A
C4343      C4348   1.415       .  A
C4343     Br4350   1.927       .  S
C4344      C4345   1.427       .  A
C4345      C4346   1.386       .  A
C4345     Br4352   1.944       .  S
C4346      C4347   1.393       .  A
C4346     Br4351   1.932       .  S
C4347      C4348   1.405       .  A
C4348     Br4349   1.916       .  S
C4353      C4354   1.416       .  A
C4353      C4358   1.396       .  A
C4353     Br4360   1.908       .  S
C4354      C4355   1.414       .  A
C4355      C4356   1.407       .  A
C4355     Br4362   1.927       .  S
C4356      C4357   1.403       .  A
C4356     Br4361   1.921       .  S
C4357      C4358   1.393       .  A
C4358     Br4359   1.923       .  S
C4363      C4364   1.418       .  A
C4363      C4368   1.444       .  A
C4363     Br4370   1.927       .  S
C4364      C4365   1.423       .  A
C4365      C4366   1.420       .  A
C4365     Br4372   1.913       .  S
C4366      C4367   1.406       .  A
C4366     Br4371   1.926       .  S
C4367      C4368   1.428       .  A
C4368     Br4369   1.914       .  S
C4373      C4374   1.427       .  A
C4373      C4378   1.431       .  A
C4373     Br4380   1.930       .  S
C4374      C4375   1.446       .  A
C4375      C4376   1.424       .  A
C4375     Br4382   1.938       .  S
C4376      C4377   1.400       .  A
C4376     Br4381   1.935       .  S
C4377      C4378   1.415       .  A
C4378     Br4379   1.927       .  S
C4383      C4384   1.414       .  A
C4383      C4388   1.416       .  A
C4383     Br4390   1.901       .  S
C4384      C4385   1.418       .  A
C4385      C4386   1.421       .  A
C4385     Br4392   1.932       .  S
C4386      C4387   1.415       .  A
C4386     Br4391   1.924       .  S
C4387      C4388   1.403       .  A
C4388     Br4389   1.922       .  S
C4393      C4394   1.405       .  A
C4393      C4398   1.395       .  A
C4393     Br4400   1.919       .  S
C4394      C4395   1.401       .  A
C4395      C4396   1.400       .  A
C4395     Br4402   1.930       .  S
C4396      C4397   1.410       .  A
C4396     Br4401   1.924       .  S
C4397      C4398   1.401       .  A
C4398     Br4399   1.926       .  S
C4403      C4404   1.415       .  A
C4403      C4408   1.407       .  A
C4403     Br4410   1.917       .  S
C4404      C4405   1.409       .  A
C4405      C4406   1.391       .  A
C4405     Br4412   1.926       .  S
C4406      C4407   1.403       .  A
C4406     Br4411   1.914       .  S
C4407      C4408   1.404       .  A
C4408     Br4409   1.926       .  S
C4413      C4414   1.418       .  A
C4413      C4418   1.430       .  A
C4413     Br4420   1.922       .  S
C4414      C4415   1.403       .  A
C4415      C4416   1.424       .  A
C4415     Br4422   1.930       .  S
C4416      C4417   1.435       .  A
C4416     Br4421   1.932       .  S
C4417      C4418   1.421       .  A
C4418     Br4419   1.930       .  S
C4423      C4424   1.409       .  A
C4423      C4428   1.396       .  A
C4423     Br4430   1.928       .  S
C4424      C4425   1.412       .  A
C4425      C4426   1.420       .  A
C4425     Br4432   1.925       .  S
C4426      C4427   1.416       .  A
C4426     Br4431   1.923       .  S
C4427      C4428   1.419       .  A
C4428     Br4429   1.939       .  S
C4433      C4434   1.401       .  A
C4433      C4438   1.401       .  A
C4433     Br4440   1.911       .  S
C4434      C4435   1.394       .  A
C4435      C4436   1.397       .  A
C4435     Br4442   1.908       .  S
C4436      C4437   1.411       .  A
C4436     Br4441   1.913       .  S
C4437      C4438   1.405       .  A
C4438     Br4439   1.916       .  S
C4443      C4444   1.411       .  A
C4443      C4448   1.399       .  A
C4443     Br4450   1.911       .  S
C4444      C4445   1.405       .  A
C4445      C4446   1.400       .  A
C4445     Br4452   1.909       .  S
C4446      C4447   1.402       .  A
C4446     Br4451   1.926       .  S
C4447      C4448   1.398       .  A
C4448     Br4449   1.923       .  S
C4453      C4454   1.425       .  A
C4453      C4458   1.427       .  A
C4453     Br4460   1.939       .  S
C4454      C4455   1.424       .  A
C4455      C4456   1.438       .  A
C4455     Br4462   1.933       .  S
C4456      C4457   1.430       .  A
C4456     Br4461   1.925       .  S
C4457      C4458   1.428       .  A
C4458     Br4459   1.935       .  S
C4463      C4464   1.421       .  A
C4463      C4468   1.436       .  A
C4463     Br4470   1.924       .  S
C4464      C4465   1.409       .  A
C4465      C4466   1.435       .  A
C4465     Br4472   1.933       .  S
C4466      C4467   1.440       .  A
C4466     Br4471   1.920       .  S
C4467      C4468   1.425       .  A
C4468     Br4469   1.927       .  S
C4473      C4474   1.408       .  A
C4473      C4478   1.424       .  A
C4473     Br4480   1.915       .  S
C4474      C4475   1.416       .  A
C4475      C4476   1.405       .  A
C4475     Br4482   1.920       .  S
C4476      C4477   1.403       .  A
C4476     Br4481   1.915       .  S
C4477      C4478   1.419       .  A
C4478     Br4479   1.924       .  S
C4483      C4484   1.404       .  A
C4483      C4488   1.400       .  A
C4483     Br4490   1.927       .  S
C4484      C4485   1.407       .  A
C4485      C4486   1.396       .  A
C4485     Br4492   1.935       .  S
C4486      C4487   1.413       .  A
C4486     Br4491   1.934       .  S
C4487      C4488   1.407       .  A
C4488     Br4489   1.929       .  S
C4493      C4494   1.413       .  A
C4493      C4498   1.398       .  A
C4493     Br4500   1.934       .  S
C4494      C4495   1.409       .  A
C4495      C4496   1.402       .  A
C4495     Br4502   1.931       .  S
C4496      C4497   1.413       .  A
C4496     Br4501   1.934       .  S
C4497      C4498   1.408       .  A
C4498     Br4499   1.937       .  S
C4503      C4504   1.422       .  A
C4503      C4508   1.425       .  A
C4503     Br4510   1.936       .  S
C4504      C4505   1.429       .  A
C4505      C4506   1.441       .  A
C4505     Br4512   1.919       .  S
C4506      C4507   1.418       .  A
C4506     Br4511   1.925       .  S
C4507      C4508   1.424       .  A
C4508     Br4509   1.934       .  S
C4513      C4514   1.407       .  A
C4513      C4518   1.424       .  A
C4513     Br4520   1.928       .  S
C4514      C4515   1.403       .  A
C4515      C4516   1.399       .  A
C4515     Br4522   1.926       .  S
C4516      C4517   1.428       .  A
C4516     Br4521   1.946       .  S
C4517      C4518   1.432       .  A
C4518     Br4519   1.928       .  S
C4523      C4524   1.409       .  A
C4523      C4528   1.405       .  A
C4523     Br4530   1.924       .  S
C4524      C4525   1.400       .  A
C4525      C4526   1.389       .  A
C4525     Br4532   1.932       .  S
C4526      C4527   1.407       .  A
C4526     Br4531   1.911       .  S
C4527      C4528   1.404       .  A
C4528     Br4529   1.925       .  S
C4533      C4534   1.412       .  A
C4533      C4538   1.406       .  A
C4533     Br4540   1.935       .  S
C4534      C4535   1.415       .  A
C4535      C4536   1.424       .  A
C4535     Br4542   1.914       .  S
C4536      C4537   1.414       .  A
C4536     Br4541   1.925       .  S
C4537      C4538   1.416       .  A
C4538     Br4539   1.926       .  S
C4543      C4544   1.403       .  A
C4543      C4548   1.388       .  A
C4543     Br4550   1.921       .  S
C4544      C4545   1.405       .  A
C4545      C4546   1.399       .  A
C4545     Br4552   1.927       .  S
C4546      C4547   1.405       .  A
C4546     Br4551   1.923       .  S
C4547      C4548   1.399       .  A
C4548     Br4549   1.928       .  S
C4553      C4554   1.434       .  A
C4553      C4558   1.437       .  A
C4553     Br4560   1.931       .  S
C4554      C4555   1.434       .  A
C4555      C4556   1.440       .  A
C4555     Br4562   1.928       .  S
C4556      C4557   1.419       .  A
C4556     Br4561   1.927       .  S
C4557      C4558   1.424       .  A
C4558     Br4559   1.933       .  S
C4563      C4564   1.423   1_455  A
C4563      C4568   1.434       .  A
C4563     Br4570   1.927       .  S
C4564      C4565   1.429   1_655  A
C4565      C4566   1.425       .  A
C4565     Br4572   1.933   1_455  S
C4566      C4567   1.409       .  A
C4566     Br4571   1.928       .  S
C4567      C4568   1.420       .  A
C4568     Br4569   1.922       .  S
C4573      C4574   1.400       .  A
C4573      C4578   1.419       .  A
C4573     Br4580   1.902       .  S
C4574      C4575   1.401       .  A
C4575      C4576   1.407       .  A
C4575     Br4582   1.927       .  S
C4576      C4577   1.414       .  A
C4576     Br4581   1.896       .  S
C4577      C4578   1.426       .  A
C4578     Br4579   1.931       .  S
C4583      C4584   1.417       .  A
C4583      C4588   1.404       .  A
C4583     Br4590   1.926       .  S
C4584      C4585   1.403       .  A
C4585      C4586   1.398       .  A
C4585     Br4592   1.904       .  S
C4586      C4587   1.399       .  A
C4586     Br4591   1.915       .  S
C4587      C4588   1.394       .  A
C4588     Br4589   1.919       .  S
C4593      C4594   1.408       .  A
C4593      C4598   1.403       .  A
C4593     Br4600   1.922       .  S
C4594      C4595   1.408       .  A
C4595      C4596   1.397       .  A
C4595     Br4602   1.937       .  S
C4596      C4597   1.414       .  A
C4596     Br4601   1.932       .  S
C4597      C4598   1.412       .  A
C4598     Br4599   1.934       .  S
C4603      C4604   1.413       .  A
C4603      C4608   1.421       .  A
C4603     Br4610   1.920       .  S
C4604      C4605   1.428       .  A
C4605      C4606   1.404       .  A
C4605     Br4612   1.942       .  S
C4606      C4607   1.402       .  A
C4606     Br4611   1.916       .  S
C4607      C4608   1.411       .  A
C4608     Br4609   1.908       .  S
C4613      C4614   1.423   1_554  A
C4613      C4618   1.427       .  A
C4613     Br4620   1.918       .  S
C4614      C4615   1.407       .  A
C4615      C4616   1.423       .  A
C4615     Br4622   1.920       .  S
C4616      C4617   1.430   1_556  A
C4616     Br4621   1.930       .  S
C4617      C4618   1.420       .  A
C4618     Br4619   1.932       .  S
C4623      C4624   1.413       .  A
C4623      C4628   1.420       .  A
C4623     Br4630   1.916       .  S
C4624      C4625   1.413       .  A
C4625      C4626   1.402       .  A
C4625     Br4632   1.926       .  S
C4626      C4627   1.412       .  A
C4626     Br4631   1.930       .  S
C4627      C4628   1.414       .  A
C4628     Br4629   1.924       .  S
C4633      C4634   1.419       .  A
C4633      C4638   1.417       .  A
C4633     Br4640   1.924       .  S
C4634      C4635   1.419   1_556  A
C4635      C4636   1.416   1_554  A
C4635     Br4642   1.902       .  S
C4636      C4637   1.396       .  A
C4636     Br4641   1.909       .  S
C4637      C4638   1.410       .  A
C4638     Br4639   1.909       .  S
C4643      C4644   1.418       .  A
C4643      C4648   1.397       .  A
C4643     Br4650   1.941       .  S
C4644      C4645   1.416       .  A
C4645      C4646   1.394       .  A
C4645     Br4652   1.941       .  S
C4646      C4647   1.399       .  A
C4646     Br4651   1.916       .  S
C4647      C4648   1.399       .  A
C4648     Br4649   1.912       .  S
C4653      C4654   1.431       .  A
C4653      C4658   1.432       .  A
C4653     Br4660   1.937       .  S
C4654      C4655   1.430       .  A
C4655      C4656   1.432       .  A
C4655     Br4662   1.942       .  S
C4656      C4657   1.429       .  A
C4656     Br4661   1.940       .  S
C4657      C4658   1.427       .  A
C4658     Br4659   1.940       .  S
C4663      C4664   1.407       .  A
C4663      C4668   1.425       .  A
C4663     Br4670   1.918       .  S
C4664      C4665   1.424       .  A
C4665      C4666   1.433       .  A
C4665     Br4672   1.911       .  S
C4666      C4667   1.418       .  A
C4666     Br4671   1.930       .  S
C4667      C4668   1.430       .  A
C4668     Br4669   1.934       .  S
C4673      C4674   1.413       .  A
C4673      C4678   1.418       .  A
C4673     Br4680   1.925       .  S
C4674      C4675   1.411       .  A
C4675      C4676   1.397       .  A
C4675     Br4682   1.921       .  S
C4676      C4677   1.408       .  A
C4676     Br4681   1.929       .  S
C4677      C4678   1.412       .  A
C4678     Br4679   1.923       .  S
C4683      C4684   1.401       .  A
C4683      C4688   1.394       .  A
C4683     Br4690   1.914       .  S
C4684      C4685   1.400       .  A
C4685      C4686   1.407       .  A
C4685     Br4692   1.921       .  S
C4686      C4687   1.415       .  A
C4686     Br4691   1.925       .  S
C4687      C4688   1.403       .  A
C4688     Br4689   1.916       .  S
C4693      C4694   1.407       .  A
C4693      C4698   1.401       .  A
C4693     Br4700   1.915       .  S
C4694      C4695   1.411       .  A
C4695      C4696   1.396       .  A
C4695     Br4702   1.927       .  S
C4696      C4697   1.400       .  A
C4696     Br4701   1.922       .  S
C4697      C4698   1.399       .  A
C4698     Br4699   1.917       .  S
C4703      C4704   1.418       .  A
C4703      C4708   1.410       .  A
C4703     Br4710   1.940       .  S
C4704      C4705   1.425       .  A
C4705      C4706   1.426       .  A
C4705     Br4712   1.918       .  S
C4706      C4707   1.412       .  A
C4706     Br4711   1.930       .  S
C4707      C4708   1.428       .  A
C4708     Br4709   1.947       .  S
C4713      C4714   1.415       .  A
C4713      C4718   1.429   1_556  A
C4713     Br4720   1.910       .  S
C4714      C4715   1.429       .  A
C4715      C4716   1.448   1_556  A
C4715     Br4722   1.922   1_565  S
C4716      C4717   1.425       .  A
C4716     Br4721   1.926   1_565  S
C4717      C4718   1.425       .  A
C4718     Br4719   1.936       .  S
C4723      C4724   1.412       .  A
C4723      C4728   1.415       .  A
C4723     Br4730   1.908       .  S
C4724      C4725   1.406   1_545  A
C4725      C4726   1.404   1_565  A
C4725     Br4732   1.889       .  S
C4726      C4727   1.399       .  A
C4726     Br4731   1.926   1_545  S
C4727      C4728   1.405       .  A
C4728     Br4729   1.920       .  S
C4733      C4734   1.408       .  A
C4733      C4738   1.401       .  A
C4733     Br4740   1.897       .  S
C4734      C4735   1.418       .  A
C4735      C4736   1.411       .  A
C4735     Br4742   1.926       .  S
C4736      C4737   1.402       .  A
C4736     Br4741   1.915       .  S
C4737      C4738   1.401       .  A
C4738     Br4739   1.922       .  S
C4743      C4744   1.403       .  A
C4743      C4748   1.390       .  A
C4743     Br4750   1.910   1_554  S
C4744      C4745   1.398       .  A
C4745      C4746   1.396       .  A
C4745     Br4752   1.930       .  S
C4746      C4747   1.412       .  A
C4746     Br4751   1.927       .  S
C4747      C4748   1.406       .  A
C4748     Br4749   1.938       .  S
C4753      C4754   1.411       .  A
C4753      C4758   1.413   1_556  A
C4753     Br4760   1.913   1_556  S
C4754      C4755   1.409       .  A
C4755      C4756   1.417       .  A
C4755     Br4762   1.911       .  S
C4756      C4757   1.413       .  A
C4756     Br4761   1.928       .  S
C4757      C4758   1.409   1_556  A
C4758     Br4759   1.928       .  S
C4763      C4764   1.421       .  A
C4763      C4768   1.427       .  A
C4763     Br4770   1.929       .  S
C4764      C4765   1.428       .  A
C4765      C4766   1.441       .  A
C4765     Br4772   1.929       .  S
C4766      C4767   1.425       .  A
C4766     Br4771   1.928       .  S
C4767      C4768   1.427       .  A
C4768     Br4769   1.932       .  S
C4773      C4774   1.428       .  A
C4773      C4778   1.435   1_565  A
C4773     Br4780   1.928   1_655  S
C4774      C4775   1.432       .  A
C4775      C4776   1.431   1_565  A
C4775     Br4782   1.930       .  S
C4776      C4777   1.411       .  A
C4776     Br4781   1.924       .  S
C4777      C4778   1.418       .  A
C4778     Br4779   1.925   1_655  S
C4783      C4784   1.417       .  A
C4783      C4788   1.416       .  A
C4783     Br4790   1.920       .  S
C4784      C4785   1.412   1_455  A
C4785      C4786   1.401       .  A
C4785     Br4792   1.929       .  S
C4786      C4787   1.399   1_655  A
C4786     Br4791   1.912       .  S
C4787      C4788   1.406       .  A
C4788     Br4789   1.925       .  S
C4793      C4794   1.405       .  A
C4793      C4798   1.397       .  A
C4793     Br4800   1.936       .  S
C4794      C4795   1.406       .  A
C4795      C4796   1.397       .  A
C4795     Br4802   1.918       .  S
C4796      C4797   1.403       .  A
C4796     Br4801   1.929       .  S
C4797      C4798   1.412       .  A
C4798     Br4799   1.932       .  S
C4803      C4804   1.403       .  A
C4803      C4808   1.401       .  A
C4803     Br4810   1.923   1_655  S
C4804      C4805   1.402       .  A
C4805      C4806   1.395       .  A
C4805     Br4812   1.918       .  S
C4806      C4807   1.405       .  A
C4806     Br4811   1.913       .  S
C4807      C4808   1.410       .  A
C4808     Br4809   1.909   1_655  S
C4813      C4814   1.408       .  A
C4813      C4818   1.413       .  A
C4813     Br4820   1.927       .  S
C4814      C4815   1.405       .  A
C4815      C4816   1.398       .  A
C4815     Br4822   1.918       .  S
C4816      C4817   1.406       .  A
C4816     Br4821   1.916       .  S
C4817      C4818   1.412       .  A
C4818     Br4819   1.918   1_565  S
C4823      C4824   1.425       .  A
C4823      C4828   1.441       .  A
C4823     Br4830   1.931       .  S
C4824      C4825   1.440       .  A
C4825      C4826   1.434       .  A
C4825     Br4832   1.934       .  S
C4826      C4827   1.411       .  A
C4826     Br4831   1.928       .  S
C4827      C4828   1.425       .  A
C4828     Br4829   1.920       .  S
C4833      C4834   1.410       .  A
C4833      C4838   1.419       .  A
C4833     Br4840   1.928       .  S
C4834      C4835   1.421       .  A
C4835      C4836   1.403       .  A
C4835     Br4842   1.930       .  S
C4836      C4837   1.411       .  A
C4836     Br4841   1.932       .  S
C4837      C4838   1.422       .  A
C4838     Br4839   1.919       .  S
C4843      C4844   1.403       .  A
C4843      C4848   1.391       .  A
C4843     Br4850   1.921       .  S
C4844      C4845   1.401       .  A
C4845      C4846   1.395       .  A
C4845     Br4852   1.922       .  S
C4846      C4847   1.408       .  A
C4846     Br4851   1.932       .  S
C4847      C4848   1.404       .  A
C4848     Br4849   1.925       .  S
C4853      C4854   1.418       .  A
C4853      C4858   1.408       .  A
C4853     Br4860   1.928       .  S
C4854      C4855   1.400       .  A
C4855      C4856   1.391       .  A
C4855     Br4862   1.910       .  S
C4856      C4857   1.410       .  A
C4856     Br4861   1.932       .  S
C4857      C4858   1.405       .  A
C4858     Br4859   1.920       .  S
C4863      C4864   1.419       .  A
C4863      C4868   1.414       .  A
C4863     Br4870   1.910       .  S
C4864      C4865   1.423       .  A
C4865      C4866   1.417       .  A
C4865     Br4872   1.938       .  S
C4866      C4867   1.410       .  A
C4866     Br4871   1.915       .  S
C4867      C4868   1.404       .  A
C4868     Br4869   1.928       .  S
C4873      C4874   1.419       .  A
C4873      C4878   1.419       .  A
C4873     Br4880   1.935       .  S
C4874      C4875   1.432       .  A
C4875      C4876   1.436       .  A
C4875     Br4882   1.934       .  S
C4876      C4877   1.422       .  A
C4876     Br4881   1.925       .  S
C4877      C4878   1.424       .  A
C4878     Br4879   1.929       .  S
C4883      C4884   1.431       .  A
C4883      C4888   1.430       .  A
C4883     Br4890   1.926       .  S
C4884      C4885   1.435       .  A
C4885      C4886   1.434       .  A
C4885     Br4892   1.928       .  S
C4886      C4887   1.412       .  A
C4886     Br4891   1.925       .  S
C4887      C4888   1.411       .  A
C4888     Br4889   1.927       .  S
C4893      C4894   1.419       .  A
C4893      C4898   1.393       .  A
C4893     Br4900   1.939       .  S
C4894      C4895   1.414       .  A
C4895      C4896   1.419       .  A
C4895     Br4902   1.921       .  S
C4896      C4897   1.412       .  A
C4896     Br4901   1.922       .  S
C4897      C4898   1.415       .  A
C4898     Br4899   1.950       .  S
C4903      C4904   1.400       .  A
C4903      C4908   1.406       .  A
C4903     Br4910   1.924       .  S
C4904      C4905   1.402       .  A
C4905      C4906   1.401       .  A
C4905     Br4912   1.928       .  S
C4906      C4907   1.407       .  A
C4906     Br4911   1.906       .  S
C4907      C4908   1.413       .  A
C4908     Br4909   1.922       .  S
C4913      C4914   1.396       .  A
C4913      C4918   1.392       .  A
C4913     Br4920   1.940       .  S
C4914      C4915   1.407       .  A
C4915      C4916   1.407       .  A
C4915     Br4922   1.930       .  S
C4916      C4917   1.414       .  A
C4916     Br4921   1.929       .  S
C4917      C4918   1.426       .  A
C4918     Br4919   1.939       .  S
C4923      C4924   1.389       .  A
C4923      C4928   1.384       .  A
C4923     Br4930   1.909       .  S
C4924      C4925   1.419       .  A
C4925      C4926   1.429       .  A
C4925     Br4932   1.921       .  S
C4926      C4927   1.423       .  A
C4926     Br4931   1.931       .  S
C4927      C4928   1.421       .  A
C4928     Br4929   1.929       .  S
C4933      C4934   1.426       .  A
C4933      C4938   1.436   1_655  A
C4933     Br4940   1.929   1_556  S
C4934      C4935   1.433   1_655  A
C4935      C4936   1.435       .  A
C4935     Br4942   1.926       .  S
C4936      C4937   1.415       .  A
C4936     Br4941   1.928       .  S
C4937      C4938   1.421       .  A
C4938     Br4939   1.924   1_556  S
C4943      C4944   1.404       .  A
C4943      C4948   1.407       .  A
C4943     Br4950   1.922       .  S
C4944      C4945   1.413       .  A
C4945      C4946   1.418       .  A
C4945     Br4952   1.925       .  S
C4946      C4947   1.406       .  A
C4946     Br4951   1.914       .  S
C4947      C4948   1.408       .  A
C4948     Br4949   1.910       .  S
C4953      C4954   1.414       .  A
C4953      C4958   1.399       .  A
C4953     Br4960   1.915       .  S
C4954      C4955   1.439       .  A
C4955      C4956   1.407       .  A
C4955     Br4962   1.938       .  S
C4956      C4957   1.388       .  A
C4956     Br4961   1.922       .  S
C4957      C4958   1.398       .  A
C4958     Br4959   1.919       .  S
C4963      C4964   1.411       .  A
C4963      C4968   1.390       .  A
C4963     Br4970   1.928   1_455  S
C4964      C4965   1.409       .  A
C4965      C4966   1.406       .  A
C4965     Br4972   1.933       .  S
C4966      C4967   1.413       .  A
C4966     Br4971   1.930       .  S
C4967      C4968   1.406       .  A
C4968     Br4969   1.940       .  S
C4973      C4974   1.420   1_455  A
C4973      C4978   1.395       .  A
C4973     Br4980   1.920       .  S
C4974      C4975   1.416       .  A
C4975      C4976   1.424       .  A
C4975     Br4982   1.927       .  S
C4976      C4977   1.419   1_655  A
C4976     Br4981   1.927       .  S
C4977      C4978   1.401       .  A
C4978     Br4979   1.928       .  S
C4983      C4984   1.438       .  A
C4983      C4988   1.429       .  A
C4983     Br4990   1.881       .  S
C4984      C4985   1.403       .  A
C4985      C4986   1.421       .  A
C4985     Br4992   1.929       .  S
C4986      C4987   1.428       .  A
C4986     Br4991   1.905       .  S
C4987      C4988   1.398       .  A
C4988     Br4989   1.936       .  S
