geometry optimzed in LAMMPS
_audit_creation_date              2020-12-01 
_audit_creation_method            'lammps2cif' 
_symmetry_space_group_name_H-M    'P1' 
_symmetry_Int_Tables_number       1 
_symmetry_cell_setting            triclinic 
loop_ 
_symmetry_equiv_pos_as_xyz 
  x,y,z 
_cell_length_a                    43.12541162 
_cell_length_b                    43.08083721236525 
_cell_length_c                    33.55161736070841 
_cell_angle_alpha                 89.02441933471401 
_cell_angle_beta                  90.95545564150856 
_cell_angle_gamma                 119.94661582768678 
loop_ 
_atom_site_label 
_atom_site_type_symbol 
_atom_site_fract_x 
_atom_site_fract_y 
_atom_site_fract_z 
_atom_site_charge 
Zn1        Zn  0.02296360  0.47567372  0.37346316     1.49700
Zn2        Zn  0.04078336  0.03773912  0.31287299     1.49400
Zn3        Zn  0.46882038  0.46604420  0.30085154     1.49100
Zn4        Zn  0.47964986  0.01444095  0.37539448     1.49500
O5          O  0.99981125  0.99600083  0.33823294    -1.81400
O6          O  0.06772165  0.98873810  0.36420851    -0.72000
O7          O  0.03438810  0.03449543  0.25305758    -0.71800
O8          O  0.46915614  0.41761517  0.30412592    -0.71300
O9          O  0.08737505  0.03619968  0.32383224    -0.72000
O10         O  0.50872661  0.42923270  0.35304925    -0.71600
O11         O  0.48220139  0.48409528  0.24389415    -0.72200
O12         O  0.43406073  0.50211992  0.36003698    -0.71600
O13         O  0.04056138  0.08428809  0.32576257    -0.72300
O14         O  0.42028668  0.46439751  0.30955292    -0.71700
O15         O  0.99332480  0.06343258  0.36530112    -0.72200
O16         O  0.48551499  0.00552327  0.43399462    -0.72100
O17         O  0.01352964  0.47538389  0.43228406    -0.71900
C18         C  0.09209954  0.01297210  0.34312460     0.79900
C19         C  0.50766492  0.51235196  0.22819119     0.80400
C20         C  0.48863212  0.40905525  0.32568966     0.79300
C21         C  0.41260083  0.48271330  0.33302301     0.79700
C22         C  0.01730325  0.08837213  0.34455776     0.80900
C23         C  0.99195002  0.98372705  0.44987402     0.79900
Zn24       Zn  0.02805320  0.23132473  0.36687579     1.49700
Zn25       Zn  0.03769762  0.28381502  0.29416977     1.49400
Zn26       Zn  0.46371137  0.20922514  0.30493717     1.49100
Zn27       Zn  0.48440268  0.27106417  0.37038001     1.49500
O28         O  0.00341247  0.24853064  0.33234353    -1.81400
O29         O  0.07664694  0.24661246  0.34818577    -0.72000
O30         O  0.01970344  0.26791263  0.23770974    -0.71800
O31         O  0.46303150  0.16099535  0.31528841    -0.71300
O32         O  0.08600286  0.28374842  0.29703888    -0.72000
O33         O  0.50772240  0.17942466  0.35906770    -0.71600
O34         O  0.47318583  0.21939860  0.24599376    -0.72200
O35         O  0.43467922  0.25481805  0.35587264    -0.71600
O36         O  0.03817609  0.33201632  0.30112476    -0.72300
O37         O  0.41684571  0.21002565  0.31301592    -0.71700
O38         O  0.00601572  0.32134348  0.35628077    -0.72200
O39         O  0.48915489  0.26401426  0.43026042    -0.72100
O40         O  0.02520158  0.23810612  0.42593778    -0.71900
C41         C  0.09537964  0.26514293  0.31900053     0.79900
C42         C  0.99229333  0.24087024  0.22292108     0.80400
C43         C  0.48505630  0.15567281  0.33628718     0.79300
C44         C  0.41156327  0.23240255  0.33211876     0.79700
C45         C  0.02250501  0.34110298  0.32676044     0.80900
C46         C  0.00798891  0.24966890  0.44534296     0.79900
Zn47       Zn  0.28709762  0.03210600  0.29650654     1.49700
Zn48       Zn  0.21253398  0.45778585  0.31267631     1.49400
Zn49       Zn  0.27543582  0.48030611  0.37763215     1.49100
Zn50       Zn  0.23508006  0.02063126  0.36888007     1.49500
O51         O  0.25316728  0.49823551  0.34009321    -1.81400
O52         O  0.27125030  0.01529975  0.24006719    -0.72000
O53         O  0.21210226  0.41063252  0.32549080    -0.71800
O54         O  0.32489518  0.99791945  0.35770575    -0.71300
O55         O  0.22073974  0.46373996  0.25349344    -0.72000
O56         O  0.33558292  0.03292228  0.30408259    -0.71600
O57         O  0.25853899  0.42982251  0.36721374    -0.72200
O58         O  0.24206438  0.01416069  0.42782148    -0.71600
O59         O  0.16546000  0.45876869  0.32074295    -0.72300
O60         O  0.26823833  0.48703333  0.43624648    -0.71700
O61         O  0.18548562  0.50646268  0.35933472    -0.72200
O62         O  0.25162551  0.07045104  0.35187785    -0.72100
O63         O  0.28656136  0.07995591  0.29957351    -0.71900
C64         C  0.24519916  0.48747790  0.23170736     0.79900
C65         C  0.23489898  0.40573266  0.34534653     0.80400
C66         C  0.34480193  0.01610496  0.32910439     0.79300
C67         C  0.25406325  0.50379781  0.45170808     0.79700
C68         C  0.16106091  0.48243302  0.33825072     0.80900
C69         C  0.26911654  0.08936793  0.32220955     0.79900
Zn70       Zn  0.22790092  0.26194709  0.36229854     1.49700
Zn71       Zn  0.21905133  0.21430290  0.28654962     1.49400
Zn72       Zn  0.29336831  0.29114263  0.30100466     1.49100
Zn73       Zn  0.27165975  0.22450399  0.35896410     1.49500
O74         O  0.25293790  0.24819162  0.32574544    -1.81400
O75         O  0.17857977  0.24525752  0.34537388    -0.72000
O76         O  0.23857830  0.23373258  0.23143860    -0.71800
O77         O  0.29194058  0.33674124  0.31700573    -0.71300
O78         O  0.17052749  0.21437579  0.28987480    -0.72000
O79         O  0.24482583  0.31289227  0.35695467    -0.71600
O80         O  0.28648917  0.28751091  0.24109019    -0.72200
O81         O  0.32064318  0.24120830  0.34634596    -0.71600
O82         O  0.21796055  0.16511803  0.29175496    -0.72300
O83         O  0.34137533  0.29136786  0.31081999    -0.71700
O84         O  0.25307056  0.17477619  0.34491894    -0.72200
O85         O  0.26944661  0.23009963  0.41742930    -0.72100
O86         O  0.23226704  0.25148959  0.42012707    -0.71900
C87         C  0.16027600  0.22973443  0.31465682     0.79900
C88         C  0.26456100  0.26291445  0.21796553     0.80400
C89         C  0.26872265  0.33931921  0.33783380     0.79300
C90         C  0.34553567  0.26666869  0.32736128     0.79700
C91         C  0.23491345  0.15540464  0.31604480     0.80900
C92         C  0.25166645  0.24055529  0.43725328     0.79900
Zn93       Zn  0.01942406  0.04049854  0.04230131     1.49700
Zn94       Zn  0.47500193  0.45782053  0.03796334     1.49400
Zn95       Zn  0.46804671  0.49999457  0.96331903     1.49100
Zn96       Zn  0.04084653  0.00220643  0.97596296     1.49500
O97         O  0.50062288  0.49961092  0.00447931    -1.81400
O98         O  0.01386710  0.02673349  0.10114922    -0.72000
O99         O  0.42835071  0.42437577  0.01479010    -0.71800
O100        O  0.47268440  0.05320588  0.97763867    -0.71300
O101        O  0.47169631  0.46756742  0.09540746    -0.72000
O102        O  0.99934520  0.07149579  0.03023499    -0.71600
O103        O  0.41844513  0.45335871  0.96528495    -0.72200
O104        O  0.03248668  0.00389956  0.91699609    -0.71600
O105        O  0.49623860  0.42744904  0.03616229    -0.72300
O106        O  0.48670566  0.49824811  0.90909005    -0.71700
O107        O  0.03936469  0.45285848  0.97622217    -0.72200
O108        O  0.08735977  0.04958315  0.98618355    -0.72100
O109        O  0.06917205  0.07586471  0.02911884    -0.71900
C110        C  0.48914951  0.49583526  0.11579282     0.79900
C111        C  0.40936054  0.42486120  0.98591457     0.80400
C112        C  0.49133997  0.07913332  0.00134650     0.79300
C113        C  0.51406022  0.49756523  0.89645161     0.79700
C114        C  0.02577227  0.42866500  0.00352081     0.80900
C115        C  0.09242355  0.07700916  0.00566216     0.79900
Zn116      Zn  0.04280888  0.25085857  0.03041545     1.49700
Zn117      Zn  0.48950877  0.21650191  0.96582959     1.49400
Zn118      Zn  0.47518562  0.25275287  0.04112319     1.49100
Zn119      Zn  0.02327529  0.29356297  0.96654849     1.49500
O120        O  0.51086737  0.25549016  0.00342311    -1.81400
O121        O  0.04026299  0.20232342  0.02125534    -0.72000
O122        O  0.44021817  0.18279605  0.98023322    -0.71800
O123        O  0.49092091  0.25089077  0.09772918    -0.71300
O124        O  0.50792796  0.18352581  0.97384376    -0.72000
O125        O  0.03484586  0.25169119  0.08923153    -0.71600
O126        O  0.42842810  0.20493506  0.03369796    -0.72200
O127        O  0.00094407  0.32274510  0.97376802    -0.71600
O128        O  0.49199483  0.23076259  0.90804465    -0.72300
O129        O  0.47331142  0.29983092  0.03895532    -0.71700
O130        O  0.02527484  0.28536178  0.90874450    -0.72200
O131        O  0.07078185  0.32774455  0.98496135    -0.72100
O132        O  0.09048510  0.29828888  0.02266764    -0.71900
C133        C  0.01900747  0.17592292  0.99929528     0.79900
C134        C  0.42027611  0.17955527  0.00910833     0.80400
C135        C  0.51978351  0.25490634  0.11336495     0.79300
C136        C  0.49221158  0.32823670  0.01825840     0.79700
C137        C  0.50453534  0.26148045  0.89163330     0.80900
C138        C  0.09462080  0.32737502  0.00693734     0.79900
Zn139      Zn  0.23469601  0.46221846  0.04476947     1.49700
Zn140      Zn  0.21145182  0.50217662  0.97965757     1.49400
Zn141      Zn  0.27759464  0.04724469  0.03310610     1.49100
Zn142      Zn  0.29867212  0.00652466  0.96983518     1.49500
O143        O  0.25951852  0.00553157  0.00017778    -1.81400
O144        O  0.18414419  0.42903929  0.03525264    -0.72000
O145        O  0.22003163  0.05023279  0.96675608    -0.71800
O146        O  0.26937550  0.03752532  0.09164766    -0.71300
O147        O  0.16465674  0.45575648  0.99264562    -0.72000
O148        O  0.24305814  0.47554484  0.10322588    -0.71600
O149        O  0.26207597  0.08018500  0.01247596    -0.72200
O150        O  0.34635075  0.05289550  0.98192808    -0.71600
O151        O  0.21519686  0.49873776  0.92021364    -0.72300
O152        O  0.32839454  0.07815613  0.02628929    -0.71700
O153        O  0.29042450  0.00970462  0.91077629    -0.72200
O154        O  0.28688923  0.45376416  0.97744377    -0.72100
O155        O  0.25206958  0.42972675  0.03060931    -0.71900
C156        C  0.15995874  0.42829130  0.01280127     0.79900
C157        C  0.24049860  0.07901536  0.98570873     0.80400
C158        C  0.25867336  0.00910491  0.11237612     0.79300
C159        C  0.35215899  0.07936559  0.00380562     0.79700
C160        C  0.26392737  0.00649826  0.89027143     0.80900
C161        C  0.27001828  0.42781251  0.00219665     0.79900
Zn162      Zn  0.28518479  0.25209502  0.95266658     1.49700
Zn163      Zn  0.21058478  0.25291349  0.96687754     1.49400
Zn164      Zn  0.23486666  0.20945582  0.02557216     1.49100
Zn165      Zn  0.27636961  0.29089911  0.02959158     1.49500
O166        O  0.25169645  0.25157436  0.99246578    -1.81400
O167        O  0.26599667  0.25258083  0.89703291    -0.72000
O168        O  0.16297229  0.20518322  0.97873050    -0.71800
O169        O  0.25225332  0.17821241  0.00819130    -0.71300
O170        O  0.21667029  0.25568990  0.90659146    -0.72000
O171        O  0.28786168  0.20514374  0.95658235    -0.71600
O172        O  0.18466373  0.17749791  0.01645813    -0.72200
O173        O  0.27167425  0.27685907  0.08862276    -0.71600
O174        O  0.21227612  0.30042663  0.98106137    -0.72300
O175        O  0.24163835  0.21769805  0.08420518    -0.71700
O176        O  0.26019177  0.32557875  0.02086713    -0.72200
O177        O  0.32617828  0.32247027  0.01375245    -0.72100
O178        O  0.33317761  0.30003042  0.95736927    -0.71900
C179        C  0.23933391  0.25477189  0.88344191     0.79900
C180        C  0.15908384  0.17730345  0.99749884     0.80400
C181        C  0.27094669  0.17796746  0.97971904     0.79300
C182        C  0.25624731  0.24588802  0.10499841     0.79700
C183        C  0.23604338  0.32727133  0.00066438     0.80900
C184        C  0.34401575  0.32517528  0.98294043     0.79900
Zn185      Zn  0.45301592  0.46620781  0.70592793     1.49700
Zn186      Zn  0.49228995  0.45640439  0.63263561     1.49400
Zn187      Zn  0.98807576  0.03596638  0.63917889     1.49100
Zn188      Zn  0.02836144  0.01688812  0.70840247     1.49500
O189        O  0.49057087  0.00060176  0.67313652    -1.81400
O190        O  0.42149467  0.41563583  0.69361641    -0.72000
O191        O  0.49442173  0.47539340  0.57675052    -0.71800
O192        O  0.44143776  0.03787744  0.64758235    -0.71300
O193        O  0.44201942  0.41059858  0.63511150    -0.72000
O194        O  0.41888763  0.48199163  0.69371420    -0.71600
O195        O  0.98659956  0.02505392  0.58083897    -0.72200
O196        O  0.06140597  0.06757576  0.69680295    -0.71600
O197        O  0.03900154  0.45665024  0.64273868    -0.72300
O198        O  0.03635313  0.08241695  0.64702789    -0.71700
O199        O  0.06144957  0.00013089  0.69486709    -0.72200
O200        O  0.01560404  0.00974099  0.76712932    -0.72100
O201        O  0.46451501  0.47275465  0.76402049    -0.71900
C202        C  0.41690209  0.39983062  0.66073156     0.79900
C203        C  0.49185232  0.00317339  0.56287316     0.80400
C204        C  0.41333871  0.01469043  0.66599154     0.79300
C205        C  0.06310870  0.08921697  0.66975422     0.79700
C206        C  0.06824078  0.47736102  0.66137170     0.80900
C207        C  0.48827837  0.00207399  0.78553495     0.79900
Zn208      Zn  0.99236908  0.29052152  0.63699056     1.49700
Zn209      Zn  0.02968020  0.26614817  0.70409443     1.49400
Zn210      Zn  0.44803668  0.22538286  0.70221512     1.49100
Zn211      Zn  0.49151783  0.21413682  0.63349577     1.49500
O212        O  0.99042515  0.24965046  0.66643346    -1.81400
O213        O  0.04029545  0.33711249  0.64981660    -0.72000
O214        O  0.01672778  0.25765945  0.76159433    -0.71800
O215        O  0.41712570  0.24540044  0.69267209    -0.71300
O216        O  0.06365456  0.31618587  0.69508330    -0.72000
O217        O  0.44468401  0.28986764  0.64869403    -0.71600
O218        O  0.45606191  0.22299567  0.76070255    -0.72200
O219        O  0.44370329  0.16449983  0.63745480    -0.71600
O220        O  0.06186540  0.24846815  0.69205091    -0.72300
O221        O  0.41559335  0.17791063  0.68302109    -0.71700
O222        O  0.03855869  0.21463602  0.63831397    -0.72200
O223        O  0.49288584  0.23129863  0.57624192    -0.72100
O224        O  0.99393231  0.28310042  0.57779197    -0.71900
C225        C  0.06637777  0.34088820  0.67207605     0.79900
C226        C  0.98650930  0.24011456  0.77833596     0.80400
C227        C  0.41689646  0.26815131  0.66855797     0.79300
C228        C  0.41548853  0.15691049  0.65721608     0.79700
C229        C  0.06443359  0.23159286  0.66304510     0.80900
C230        C  0.99395281  0.25872638  0.55688123     0.79900
Zn231      Zn  0.23800318  0.03867588  0.63497416     1.49700
Zn232      Zn  0.28050939  0.01976749  0.70144356     1.49400
Zn233      Zn  0.20477811  0.47772814  0.70964941     1.49100
Zn234      Zn  0.24329961  0.45196001  0.64665970     1.49500
O235        O  0.23914508  0.99982990  0.66607369    -1.81400
O236        O  0.28675528  0.08579643  0.64087049    -0.72000
O237        O  0.26931755  0.01499323  0.76074988    -0.73000
O238        O  0.17192178  0.49571930  0.69414017    -0.71300
O239        O  0.31472962  0.06916755  0.68521878    -0.72000
O240        O  0.19079375  0.03941901  0.64497471    -0.71600
O241        O  0.22030529  0.48611472  0.76854186    -0.72200
O242        O  0.19395855  0.40703473  0.65611734    -0.71600
O243        O  0.31165354  0.00040394  0.69011397    -0.72300
O244        O  0.17008222  0.42719047  0.70000641    -0.71700
O245        O  0.28889319  0.44917227  0.66068386    -0.72200
O246        O  0.24740341  0.45987323  0.58700148    -0.72100
O247        O  0.23607201  0.02801751  0.57654206    -0.71900
C248        C  0.31505106  0.09154175  0.66004066     0.79900
C249        C  0.23937875  0.99953037  0.77869078     0.80400
C250        C  0.16357652  0.01681633  0.66502798     0.79300
C251        C  0.16750394  0.40315760  0.67672777     0.79700
C252        C  0.31817195  0.47441029  0.67512391     0.80900
C253        C  0.23857335  0.00456417  0.55655331     0.79900
Zn254      Zn  0.24042140  0.28349279  0.69483758     1.49700
Zn255      Zn  0.24085241  0.20893229  0.69123074     1.49400
Zn256      Zn  0.19750800  0.22689870  0.62595293     1.49100
Zn257      Zn  0.27867047  0.26780039  0.62220241     1.49500
O258        O  0.23944431  0.24699316  0.65974347    -1.81400
O259        O  0.24116301  0.26992383  0.75352738    -0.72000
O260        O  0.19225889  0.16173131  0.68612660    -0.71800
O261        O  0.16639007  0.24520388  0.63876381    -0.71300
O262        O  0.24492542  0.22053251  0.74956605    -0.72000
O263        O  0.19258415  0.28427188  0.68771982    -0.71600
O264        O  0.16476870  0.17709499  0.63985520    -0.72200
O265        O  0.26458778  0.25711774  0.56422462    -0.71600
O266        O  0.28821472  0.20957085  0.68148253    -0.72300
O267        O  0.20563614  0.23219519  0.56762687    -0.71700
O268        O  0.31423363  0.25419576  0.63741527    -0.72200
O269        O  0.30960702  0.31948401  0.62963011    -0.72100
O270        O  0.28994027  0.32937807  0.68643478    -0.71900
C271        C  0.24412512  0.24464250  0.77006617     0.79900
C272        C  0.16428528  0.15521407  0.66577438     0.80400
C273        C  0.16540100  0.26506632  0.66531778     0.79300
C274        C  0.23394629  0.24387985  0.54749550     0.79700
C275        C  0.31569761  0.23236123  0.66198275     0.80900
C276        C  0.31445464  0.33820642  0.66032129     0.79900
C277        C  0.38081997  0.12373001  0.65108119    -0.13700
C278        C  0.34970600  0.12449566  0.65345972    -0.28800
H279        H  0.38046831  0.09849665  0.64817186     0.15400
H280        H  0.35014261  0.14993059  0.65338407     0.15900
C281        C  0.13199843  0.37096436  0.67281836    -0.13700
C282        C  0.10182984  0.37348288  0.67077594    -0.28800
H283        H  0.13039494  0.34501506  0.67133624     0.15400
H284        H  0.10347830  0.39940943  0.66854615     0.15900
C285        C  0.38208532  0.26615334  0.66122919    -0.13700
C286        C  0.35093086  0.23557490  0.66970276    -0.28800
H287        H  0.38179350  0.28862450  0.64640514     0.15400
H288        H  0.35132408  0.21310347  0.68440122     0.15900
C289        C  0.13038621  0.26258191  0.67162174    -0.13700
C290        C  0.09961859  0.23463870  0.65675289    -0.28800
H291        H  0.12947639  0.28246596  0.69030219     0.15400
H292        H  0.10052471  0.21488427  0.63783472     0.15900
C293        C  0.38040257  0.37025379  0.65132337    -0.13700
C294        C  0.35089845  0.36879039  0.66749958    -0.28800
H295        H  0.37752954  0.35059851  0.62952002     0.15400
H296        H  0.35395419  0.38861414  0.68917423     0.15900
C297        C  0.09814210  0.12153432  0.66275698    -0.13700
C298        C  0.12933936  0.12300495  0.67392827    -0.28800
H299        H  0.09848492  0.14337619  0.64575241     0.15400
H300        H  0.12903891  0.10111045  0.69076789     0.15900
C301        C  0.37856778  0.01311863  0.66041337    -0.13700
C302        C  0.35217148  0.47431466  0.67254651    -0.28800
H303        H  0.37828116  0.03817440  0.65849510     0.15400
H304        H  0.35157245  0.44879732  0.67269403     0.15900
C305        C  0.10194402  0.47713800  0.65471959    -0.13700
C306        C  0.12865498  0.01519563  0.66190479    -0.28800
H307        H  0.10124350  0.45175386  0.65204379     0.15400
H308        H  0.12792135  0.04003928  0.66088467     0.15900
C309        C  0.23465131  0.25681933  0.83976245    -0.13700
C310        C  0.24801461  0.24314937  0.81385961    -0.28800
H311        H  0.21895385  0.26861269  0.82878871     0.15400
H312        H  0.26126734  0.22893477  0.82523475     0.15900
C313        C  0.23717002  0.36204224  0.99969898    -0.13700
C314        C  0.26880463  0.39328441  0.99745061    -0.28800
H315        H  0.21211906  0.36225124  0.00111652     0.15400
H316        H  0.29358807  0.39323526  0.99237973     0.15900
C317        C  0.27117961  0.14425185  0.97412344    -0.13700
C318        C  0.24020409  0.11248480  0.97714986    -0.28800
H319        H  0.29671521  0.14514173  0.97173884     0.15400
H320        H  0.21459630  0.11166052  0.97696415     0.15900
C321        C  0.26637893  0.00769731  0.84628536    -0.13700
C322        C  0.23782472  0.99916572  0.82265055    -0.28800
H323        H  0.20450967  0.48798193  0.84344768     0.15400
H324        H  0.21191845  0.99044812  0.83595424     0.15900
C325        C  0.38806385  0.14440876  0.01506867    -0.13700
C326        C  0.38575583  0.11392863  0.00087293    -0.28800
H327        H  0.36644420  0.14342015  0.03225410     0.15400
H328        H  0.40767914  0.11501883  0.98419120     0.15900
C329        C  0.12669018  0.36219189  0.01531128    -0.13700
C330        C  0.12710313  0.39349847  0.00756111    -0.28800
H331        H  0.14986963  0.36220460  0.02853147     0.15400
H332        H  0.10401559  0.39345134  0.99399460     0.15900
C333        C  0.98458009  0.23615097  0.82177177    -0.13700
C334        C  0.01104452  0.25966107  0.84521512    -0.28800
H335        H  0.46079322  0.21326637  0.83806238     0.15400
H336        H  0.03423103  0.28268255  0.83226588     0.15900
C337        C  0.37661958  0.39073788  0.97687289    -0.13700
C338        C  0.37726308  0.35955340  0.97713250    -0.28800
H339        H  0.35141565  0.39057567  0.97388988     0.15400
H340        H  0.40254724  0.35972713  0.97819560     0.15900
C341        C  0.12544596  0.11160844  0.00046114    -0.13700
C342        C  0.12504538  0.14291476  0.99748808    -0.28800
H343        H  0.15051271  0.11146165  0.99857047     0.15400
H344        H  0.09989599  0.14298838  0.99569370     0.15900
C345        C  0.02043184  0.39248319  0.99655058    -0.13700
C346        C  0.49364836  0.36226185  0.02731201    -0.28800
H347        H  0.54501544  0.39464430  0.00178125     0.15400
H348        H  0.97506537  0.36498788  0.03406036     0.15900
C349        C  0.01568874  0.14037315  0.00528335    -0.13700
C350        C  0.49485570  0.11466909  0.99412628    -0.28800
H351        H  0.03628158  0.13885791  0.02285529     0.15400
H352        H  0.47422882  0.11602917  0.97644085     0.15900
C353        C  0.51863378  0.49583124  0.85305144    -0.13700
C354        C  0.48680739  0.00259856  0.82936887    -0.28800
H355        H  0.03563468  0.00909803  0.83974404     0.15400
H356        H  0.46457638  0.47759107  0.83952872     0.15900
C357        C  0.25468475  0.24080965  0.48089590    -0.13700
C358        C  0.23055669  0.24242885  0.50394375    -0.28800
H359        H  0.27697775  0.23924647  0.49436722     0.15400
H360        H  0.20698069  0.24152461  0.49059402     0.15900
C361        C  0.26958060  0.26874151  0.17439582    -0.13700
C362        C  0.25358230  0.24143392  0.14878060    -0.28800
H363        H  0.28707417  0.29576403  0.16329480     0.15400
H364        H  0.23720971  0.21433427  0.16033418     0.15900
C365        C  0.25161187  0.50571882  0.49521027    -0.13700
C366        C  0.23953265  0.00805356  0.51264042    -0.28800
H367        H  0.25870602  0.97245882  0.50299198     0.15400
H368        H  0.25659386  0.46065940  0.50996086     0.15900
C369        C  0.26765088  0.37291851  0.33932938    -0.13700
C370        C  0.23594319  0.37229103  0.34180512    -0.28800
H371        H  0.29261863  0.39823661  0.33743738     0.15400
H372        H  0.21079555  0.34716509  0.33972964     0.15900
C373        C  0.26768349  0.12241745  0.31417847    -0.13700
C374        C  0.23594600  0.12191331  0.31105701    -0.28800
H375        H  0.29271953  0.14774847  0.31430118     0.15400
H376        H  0.21092141  0.09672727  0.30853690     0.15900
C377        C  0.24195206  0.48272928  0.18810934    -0.13700
C378        C  0.26047589  0.01244623  0.15613893    -0.28800
H379        H  0.22162535  0.95892709  0.16867921     0.15400
H380        H  0.28082738  0.53601378  0.17493229     0.15900
C381        C  0.00752126  0.24655856  0.48940447    -0.13700
C382        C  0.99540605  0.26309501  0.51294785    -0.28800
H383        H  0.01754428  0.23010959  0.50288774     0.15400
H384        H  0.48812731  0.28309751  0.50387647     0.15900
C385        C  0.37917892  0.26583991  0.32510773    -0.13700
C386        C  0.37854955  0.23397271  0.32631032    -0.28800
H387        H  0.40438932  0.29096915  0.32420128     0.15400
H388        H  0.35340999  0.20888341  0.32382204     0.15900
C389        C  0.12816918  0.26357723  0.31096757    -0.13700
C390        C  0.12725592  0.23165652  0.30828556    -0.28800
H391        H  0.15363619  0.28846575  0.31132662     0.15400
H392        H  0.10186610  0.20683420  0.30583756     0.15900
C393        C  0.98692545  0.23800990  0.17918525    -0.13700
C394        C  0.01460106  0.25228532  0.15394163    -0.28800
H395        H  0.46867902  0.22629598  0.16876900     0.15400
H396        H  0.04176042  0.26485305  0.16580167     0.15900
C397        C  0.99081732  0.98002629  0.49379425    -0.13700
C398        C  0.49130327  0.00494604  0.51874005    -0.28800
H399        H  0.99660473  0.96026444  0.50713036     0.15400
H400        H  0.48954355  0.52817493  0.50616916     0.15900
C401        C  0.48943576  0.37554579  0.31955568    -0.13700
C402        C  0.02041471  0.37404784  0.32210998    -0.28800
H403        H  0.46421578  0.35060762  0.31674275     0.15400
H404        H  0.04499683  0.39959602  0.31924661     0.15900
C405        C  0.01639700  0.12200673  0.34129896    -0.13700
C406        C  0.48625231  0.12211879  0.33440427    -0.28800
H407        H  0.04170427  0.14707038  0.34055206     0.15400
H408        H  0.46144809  0.09696777  0.33042089     0.15900
C409        C  0.37887151  0.48351541  0.32884520    -0.13700
C410        C  0.37811014  0.01484458  0.32455552    -0.28800
H411        H  0.35377994  0.45835948  0.32669134     0.15400
H412        H  0.40345658  0.03978997  0.32330200     0.15900
C413        C  0.12578948  0.01226970  0.34013281    -0.13700
C414        C  0.12753437  0.48344326  0.33425444    -0.28800
H415        H  0.15083520  0.03758798  0.33944336     0.15400
H416        H  0.10234541  0.45827168  0.33464393     0.15900
C417        C  0.48590098  0.49231083  0.15960327    -0.13700
C418        C  0.50906415  0.51771998  0.18445080    -0.28800
H419        H  0.46514478  0.46693240  0.17171296     0.15400
H420        H  0.03507325  0.04335531  0.17544640     0.15900
Zn421      Zn  0.01661018  0.97029060  0.37167524     1.49700
Zn422      Zn  0.03735563  0.53233323  0.30325539     1.49400
Zn423      Zn  0.46751337  0.96588740  0.29907918     1.49100
Zn424      Zn  0.48412682  0.51925552  0.37445413     1.49500
O425        O  0.00154216  0.49632634  0.33934889    -1.81400
O426        O  0.07388832  0.49672770  0.36385541    -0.72000
O427        O  0.02282292  0.51672276  0.24601999    -0.71800
O428        O  0.46766483  0.91793261  0.29702982    -0.71300
O429        O  0.08559250  0.53330171  0.31147757    -0.72000
O430        O  0.50381639  0.92406517  0.34809910    -0.71600
O431        O  0.48456137  0.98663772  0.24445441    -0.72200
O432        O  0.42941369  0.99702600  0.36059379    -0.71600
O433        O  0.03719612  0.58024716  0.30841333    -0.72300
O434        O  0.41942170  0.96519345  0.30536886    -0.71700
O435        O  0.00268720  0.56956833  0.36139751    -0.72200
O436        O  0.48947686  0.50966846  0.43288534    -0.72100
O437        O  0.00579363  0.96875221  0.43023399    -0.71900
C438        C  0.09434886  0.51586638  0.33609204     0.79900
C439        C  0.51310351  0.01284718  0.23060020     0.80400
C440        C  0.48631923  0.90760006  0.31732595     0.79300
C441        C  0.41011791  0.98095594  0.33058676     0.79700
C442        C  0.02031768  0.58934415  0.33231593     0.80900
C443        C  0.00173725  0.49212376  0.45219774     0.79900
Zn444      Zn  0.02610503  0.72988515  0.36483146     1.49700
Zn445      Zn  0.03867127  0.78465267  0.29284269     1.49400
Zn446      Zn  0.46433376  0.71020783  0.30008284     1.49100
Zn447      Zn  0.48495734  0.77600720  0.35662386     1.49500
O448        O  0.00351450  0.74899921  0.32993574    -1.81400
O449        O  0.07621372  0.74898887  0.35161160    -0.72000
O450        O  0.02272706  0.76862076  0.23619417    -0.71800
O451        O  0.46692641  0.66446712  0.31449603    -0.71300
O452        O  0.08703583  0.78541888  0.29926636    -0.72000
O453        O  0.51107779  0.68555027  0.35951493    -0.71600
O454        O  0.47044666  0.71688574  0.24043030    -0.72200
O455        O  0.43560466  0.75927977  0.34165577    -0.71600
O456        O  0.03809452  0.83259287  0.29689158    -0.72300
O457        O  0.41616574  0.70895330  0.30793563    -0.71700
O458        O  0.00383701  0.82226477  0.34998831    -0.72200
O459        O  0.48980988  0.77459820  0.41575248    -0.72100
O460        O  0.01931584  0.73342630  0.42356089    -0.71900
C461        C  0.09599066  0.76764960  0.32316144     0.79900
C462        C  0.99468441  0.74298494  0.22053198     0.80400
C463        C  0.48898441  0.66063156  0.33723532     0.79300
C464        C  0.41145986  0.73370673  0.32197358     0.79700
C465        C  0.02091448  0.84161429  0.32045113     0.80900
C466        C  0.00553848  0.74875417  0.44263844     0.79900
Zn467      Zn  0.28857210  0.53280648  0.30246938     1.49700
Zn468      Zn  0.21073458  0.95745307  0.30512252     1.49400
Zn469      Zn  0.27386865  0.97708664  0.36762742     1.49100
Zn470      Zn  0.23533998  0.52256757  0.37181736     1.49500
O471        O  0.25160603  0.99696894  0.33344645    -1.81400
O472        O  0.27213969  0.51490092  0.24658561    -0.72000
O473        O  0.21126725  0.90995875  0.31286953    -0.71800
O474        O  0.32588373  0.49808489  0.36380616    -0.71300
O475        O  0.21827966  0.96572089  0.24584484    -0.72000
O476        O  0.33655006  0.53310277  0.31010857    -0.71600
O477        O  0.26010437  0.92880162  0.35049642    -0.72200
O478        O  0.24133742  0.51941186  0.43029451    -0.71600
O479        O  0.16370383  0.95774434  0.31736427    -0.72300
O480        O  0.26444188  0.97762731  0.42614338    -0.71700
O481        O  0.18440604  0.00312620  0.35965239    -0.72200
O482        O  0.25364066  0.57176423  0.35552909    -0.72100
O483        O  0.28949921  0.58157870  0.30428265    -0.71900
C484        C  0.24359415  0.98904223  0.22455380     0.79900
C485        C  0.23591172  0.90535018  0.32862646     0.80400
C486        C  0.34563532  0.51602696  0.33488218     0.79300
C487        C  0.25248833  0.99449188  0.44553903     0.79700
C488        C  0.15945683  0.97996821  0.33824051     0.80900
C489        C  0.27190271  0.59099269  0.32664602     0.79900
Zn490      Zn  0.23406120  0.76901795  0.35873458     1.49700
Zn491      Zn  0.21225531  0.70760714  0.29510488     1.49400
Zn492      Zn  0.28730670  0.78416113  0.28623410     1.49100
Zn493      Zn  0.27620661  0.72989025  0.35774552     1.49500
O494        O  0.25254936  0.74776934  0.32308863    -1.81400
O495        O  0.18469055  0.75443390  0.34537377    -0.72000
O496        O  0.22036852  0.71517958  0.23614903    -0.71800
O497        O  0.28739131  0.83221340  0.29355955    -0.71300
O498        O  0.16514046  0.70872929  0.30375848    -0.72000
O499        O  0.25351665  0.81952527  0.34744536    -0.71600
O500        O  0.27018952  0.76793286  0.22964705    -0.72200
O501        O  0.32484828  0.74764383  0.34218457    -0.71600
O502        O  0.21299740  0.66041354  0.30579655    -0.72300
O503        O  0.33622185  0.78536707  0.29128228    -0.71700
O504        O  0.25982595  0.67987271  0.34694749    -0.72200
O505        O  0.27510121  0.73825510  0.41607821    -0.72100
O506        O  0.23974372  0.76187846  0.41703675    -0.71900
C507        C  0.16070627  0.73180552  0.32263725     0.79900
C508        C  0.24388349  0.74002201  0.21452094     0.80400
C509        C  0.27092335  0.84040197  0.31910224     0.79300
C510        C  0.34492384  0.76692333  0.31442618     0.79700
C511        C  0.23640378  0.65585889  0.32489561     0.80900
C512        C  0.25834461  0.75047161  0.43502863     0.79900
Zn513      Zn  0.03343146  0.54560219  0.03820698     1.49700
Zn514      Zn  0.48400085  0.96040649  0.03880987     1.49400
Zn515      Zn  0.47140502  0.00510868  0.97025122     1.49100
Zn516      Zn  0.04146524  0.50169201  0.96828938     1.49500
O517        O  0.50707934  0.00314350  0.00601757    -1.81400
O518        O  0.03373509  0.53634656  0.09697257    -0.72000
O519        O  0.43676325  0.92730362  0.01681547    -0.71800
O520        O  0.47042113  0.54895983  0.96568314    -0.71300
O521        O  0.48187579  0.96924548  0.09696479    -0.72000
O522        O  0.01397665  0.57723624  0.02916239    -0.71600
O523        O  0.42297868  0.95756819  0.97256085    -0.72200
O524        O  0.02170377  0.49879090  0.91273321    -0.71600
O525        O  0.50413427  0.92896741  0.03293135    -0.72300
O526        O  0.48619504  0.00727918  0.91337453    -0.71700
O527        O  0.04116049  0.95490381  0.98437824    -0.72200
O528        O  0.09045619  0.55001067  0.96856262    -0.72100
O529        O  0.08123917  0.57855958  0.01746820    -0.71900
C530        C  0.49849663  0.99738771  0.11778242     0.79900
C531        C  0.41599214  0.92834734  0.99047476     0.80400
C532        C  0.48320910  0.57356196  0.99201726     0.79300
C533        C  0.51295124  0.00833719  0.89662651     0.79700
C534        C  0.02105482  0.92742502  0.00578281     0.80900
C535        C  0.09985978  0.57842134  0.98880243     0.79900
Zn536      Zn  0.04883747  0.75473596  0.02933419     1.49700
Zn537      Zn  0.48268517  0.71239556  0.95626533     1.49400
Zn538      Zn  0.46836146  0.74945524  0.03091528     1.49100
Zn539      Zn  0.02826084  0.79564165  0.96320949     1.49500
O540        O  0.50423429  0.75098305  0.99457155    -1.81400
O541        O  0.04668717  0.70619989  0.02221801    -0.72000
O542        O  0.43220330  0.67967960  0.96772774    -0.71800
O543        O  0.48247395  0.74725563  0.08892761    -0.71300
O544        O  0.49939449  0.67807919  0.96597419    -0.72000
O545        O  0.04076416  0.75636239  0.08815400    -0.71600
O546        O  0.42093090  0.70169128  0.02172695    -0.72200
O547        O  0.00855603  0.82641677  0.97540618    -0.71600
O548        O  0.48868306  0.72770093  0.89855911    -0.72300
O549        O  0.46979969  0.79842141  0.02632216    -0.71700
O550        O  0.02539273  0.78580374  0.90481467    -0.72200
O551        O  0.07753751  0.82904680  0.97692967    -0.72100
O552        O  0.09625923  0.80204348  0.01991721    -0.71900
C553        C  0.02496139  0.67879616  0.00183494     0.79900
C554        C  0.41222425  0.67648866  0.99656847     0.80400
C555        C  0.51028509  0.74874716  0.10470508     0.79300
C556        C  0.48647848  0.82513487  0.00243603     0.79700
C557        C  0.50719834  0.75843944  0.88243469     0.80900
C558        C  0.10119566  0.82984220  0.00024755     0.79900
Zn559      Zn  0.23948568  0.96529305  0.03734290     1.49700
Zn560      Zn  0.22230086  0.00350269  0.96400238     1.49400
Zn561      Zn  0.27752558  0.54363150  0.03988863     1.49100
Zn562      Zn  0.28523320  0.50081424  0.96849074     1.49500
O563        O  0.25204417  0.50182124  0.00708063    -1.81400
O564        O  0.18840924  0.93369424  0.02753203    -0.72000
O565        O  0.21413897  0.55100789  0.98744958    -0.71800
O566        O  0.27340098  0.53478986  0.09858561    -0.71300
O567        O  0.17585608  0.95580984  0.97304512    -0.72000
O568        O  0.24750099  0.97875647  0.09606396    -0.71600
O569        O  0.26319369  0.57853929  0.02521988    -0.72200
O570        O  0.33268836  0.54978270  0.97014276    -0.71600
O571        O  0.23577042  0.00250161  0.90681572    -0.72300
O572        O  0.32780350  0.57276618  0.02692956    -0.71700
O573        O  0.26572266  0.49781936  0.91202238    -0.72200
O574        O  0.29652673  0.95773216  0.97642827    -0.72100
O575        O  0.25428034  0.93049327  0.02230886    -0.71900
C576        C  0.16780816  0.93066776  0.99868059     0.79900
C577        C  0.23904165  0.57921583  0.00402693     0.80400
C578        C  0.25912363  0.50625355  0.11941524     0.79300
C579        C  0.34427942  0.57550288  0.99507779     0.79700
C580        C  0.23784976  0.49727761  0.89772390     0.80900
C581        C  0.27506275  0.92980744  0.99649803     0.79900
Zn582      Zn  0.29551855  0.75245516  0.95901538     1.49700
Zn583      Zn  0.22066562  0.75523034  0.95445448     1.49400
Zn584      Zn  0.23545522  0.71471255  0.02722648     1.49100
Zn585      Zn  0.27943117  0.79563596  0.02296242     1.49500
O586        O  0.25756393  0.75424277  0.98947225    -1.81400
O587        O  0.28253249  0.74880719  0.90030233    -0.72000
O588        O  0.17254122  0.70631049  0.96084022    -0.71800
O589        O  0.25418766  0.68249899  0.02034113    -0.71300
O590        O  0.23471468  0.75573840  0.89646074    -0.72000
O591        O  0.29537376  0.70529261  0.97281301    -0.71600
O592        O  0.18630545  0.68063212  0.01085527    -0.72200
O593        O  0.27742325  0.78648665  0.08138771    -0.71600
O594        O  0.22029099  0.80337535  0.96326200    -0.72300
O595        O  0.23935589  0.72818174  0.08575161    -0.71700
O596        O  0.26097920  0.82735628  0.01174165    -0.72200
O597        O  0.32812633  0.82813546  0.00786335    -0.72100
O598        O  0.34416944  0.80050461  0.96459542    -0.71900
C599        C  0.25879904  0.75151913  0.87989444     0.79900
C600        C  0.16518003  0.67911766  0.98334324     0.80400
C601        C  0.27521753  0.67982513  0.99665151     0.79300
C602        C  0.25906632  0.75843122  0.10211080     0.79700
C603        C  0.24006327  0.82947029  0.98652099     0.80900
C604        C  0.35060118  0.82846443  0.98407099     0.79900
Zn605      Zn  0.44897174  0.97813993  0.70708326     1.49700
Zn606      Zn  0.49251254  0.96455327  0.63958674     1.49400
Zn607      Zn  0.99456143  0.53757059  0.64470650     1.49100
Zn608      Zn  0.03973007  0.51746338  0.70533177     1.49500
O609        O  0.49381425  0.49067464  0.67145012    -1.81400
O610        O  0.41936648  0.92696656  0.69721339    -0.72000
O611        O  0.49470421  0.97838664  0.58086646    -0.71800
O612        O  0.44587740  0.53047010  0.65502935    -0.71300
O613        O  0.44409605  0.91782204  0.64420472    -0.72000
O614        O  0.41399416  0.99188085  0.68966550    -0.71600
O615        O  0.99242711  0.52858711  0.58531488    -0.72200
O616        O  0.07153054  0.56799411  0.69488654    -0.71600
O617        O  0.03630700  0.96163013  0.64493960    -0.72300
O618        O  0.04256580  0.58498725  0.65250672    -0.71700
O619        O  0.07009783  0.49996096  0.68614556    -0.72200
O620        O  0.03371273  0.50964668  0.76396648    -0.72100
O621        O  0.45903868  0.98705124  0.76588346    -0.71900
C622        C  0.41767545  0.90828199  0.66764245     0.79900
C623        C  0.49437142  0.50278692  0.56199930     0.80400
C624        C  0.41816827  0.50645493  0.67317335     0.79300
C625        C  0.07093097  0.59115685  0.67181992     0.79700
C626        C  0.06304037  0.98089232  0.66775298     0.80900
C627        C  0.49349777  0.48527676  0.78392482     0.79900
Zn628      Zn  0.98864054  0.78801875  0.63436126     1.49700
Zn629      Zn  0.03021857  0.76681485  0.69883908     1.49400
Zn630      Zn  0.44831627  0.72881756  0.69211574     1.49100
Zn631      Zn  0.49091488  0.70817860  0.63273691     1.49500
O632        O  0.98952637  0.74828834  0.66300463    -1.81400
O633        O  0.03634722  0.83555407  0.64410975    -0.72000
O634        O  0.01853449  0.75877234  0.75729289    -0.71800
O635        O  0.42176560  0.75387540  0.68327311    -0.71300
O636        O  0.06388107  0.81702565  0.68672768    -0.72000
O637        O  0.44284629  0.78184832  0.62511172    -0.71600
O638        O  0.45680132  0.72608271  0.75077621    -0.72200
O639        O  0.44246096  0.66105364  0.63941730    -0.71600
O640        O  0.06217032  0.74900401  0.68564356    -0.72300
O641        O  0.41268320  0.68105763  0.67403486    -0.71700
O642        O  0.03804361  0.71424205  0.63267053    -0.72200
O643        O  0.49652801  0.71839206  0.57375206    -0.72100
O644        O  0.98827045  0.78073681  0.57480248    -0.71900
C645        C  0.06428222  0.84071319  0.66363741     0.79900
C646        C  0.98941652  0.73720577  0.77464894     0.80400
C647        C  0.41814171  0.76796962  0.65137816     0.79300
C648        C  0.41336607  0.65672672  0.65420768     0.79700
C649        C  0.06432316  0.73179754  0.65666722     0.80900
C650        C  0.99065328  0.75775195  0.55369996     0.79900
Zn651      Zn  0.24168480  0.52613830  0.63261723     1.49700
Zn652      Zn  0.28688502  0.51814941  0.70349643     1.49400
Zn653      Zn  0.19847488  0.97772395  0.70098299     1.49100
Zn654      Zn  0.23916415  0.96331773  0.63133833     1.49500
O655        O  0.24394337  0.49329738  0.67225944    -1.81400
O656        O  0.28630297  0.57670151  0.63680425    -0.72000
O657        O  0.27940278  0.51439541  0.76249150    -0.73000
O658        O  0.16492166  0.99391384  0.68784291    -0.71300
O659        O  0.31640422  0.56752662  0.68565944    -0.72000
O660        O  0.19245291  0.52304095  0.63555677    -0.71600
O661        O  0.20996304  0.98409869  0.75943974    -0.72200
O662        O  0.19087134  0.91525652  0.63762291    -0.71600
O663        O  0.31951644  0.50113050  0.69167283    -0.72300
O664        O  0.16655646  0.92759883  0.68856996    -0.71700
O665        O  0.28646056  0.96211672  0.64012150    -0.72200
O666        O  0.24059007  0.97888250  0.57351046    -0.72100
O667        O  0.24547046  0.51007878  0.57779001    -0.71900
C668        C  0.31456712  0.58698454  0.65812855     0.79900
C669        C  0.25165660  0.50091153  0.78406414     0.80400
C670        C  0.16795718  0.50930141  0.66190096     0.79300
C671        C  0.16464934  0.90697027  0.66110674     0.79700
C672        C  0.31293496  0.98052697  0.66363984     0.80900
C673        C  0.24818822  0.48411576  0.56416661     0.79900
Zn674      Zn  0.24055874  0.79092438  0.68698697     1.49700
Zn675      Zn  0.24589901  0.71915167  0.69381174     1.49400
Zn676      Zn  0.20056363  0.72928707  0.62302515     1.49100
Zn677      Zn  0.28166884  0.77286475  0.61998943     1.49500
O678        O  0.24221813  0.75301994  0.65702267    -1.81400
O679        O  0.23840194  0.78036196  0.74606553    -0.72000
O680        O  0.19850412  0.67071286  0.69036934    -0.71800
O681        O  0.16661688  0.74466045  0.63470065    -0.71300
O682        O  0.24849884  0.73472225  0.75146187    -0.72000
O683        O  0.19312157  0.79081432  0.67571647    -0.71600
O684        O  0.17089484  0.67932683  0.63823770    -0.72200
O685        O  0.26820745  0.76794534  0.56194651    -0.71600
O686        O  0.29366771  0.72028620  0.68383319    -0.72300
O687        O  0.20910528  0.73491514  0.56443361    -0.71700
O688        O  0.31401544  0.75398697  0.62898681    -0.72200
O689        O  0.31537881  0.82239854  0.63405739    -0.72100
O690        O  0.28910158  0.83744582  0.68052990    -0.71900
C691        C  0.24341677  0.75850157  0.76728932     0.79900
C692        C  0.17100515  0.66061606  0.66766563     0.80400
C693        C  0.16549503  0.76764626  0.65650119     0.79300
C694        C  0.23780592  0.75138025  0.54473397     0.79700
C695        C  0.31798427  0.73678179  0.65765303     0.80900
C696        C  0.31657182  0.84385593  0.66015931     0.79900
C697        C  0.37941173  0.62268959  0.65007460    -0.13700
C698        C  0.34732542  0.62138313  0.65067766    -0.28800
H699        H  0.38054194  0.59805460  0.64944575     0.15400
H700        H  0.34561666  0.64567187  0.64844317     0.15900
C701        C  0.12997417  0.87365957  0.65645554    -0.13700
C702        C  0.09882388  0.87419433  0.65939936    -0.28800
H703        H  0.12973206  0.84857491  0.65229383     0.15400
H704        H  0.09905257  0.89950553  0.66022941     0.15900
C705        C  0.38297572  0.76520422  0.64418422    -0.13700
C706        C  0.35308032  0.73890867  0.66215218    -0.28800
H707        H  0.38125725  0.78365652  0.62301906     0.15400
H708        H  0.35500467  0.72034630  0.68297880     0.15900
C709        C  0.13023537  0.76477029  0.66155273    -0.13700
C710        C  0.09950958  0.73522308  0.64952190    -0.28800
H711        H  0.12917987  0.78593015  0.67758629     0.15400
H712        H  0.10035370  0.71430964  0.63275017     0.15900
C713        C  0.38273772  0.87662908  0.65856475    -0.13700
C714        C  0.35177084  0.87534748  0.66895250    -0.28800
H715        H  0.38225585  0.85551171  0.64083721     0.15400
H716        H  0.35243172  0.89677308  0.68626030     0.15900
C717        C  0.10510810  0.62461443  0.66529190    -0.13700
C718        C  0.13699752  0.62779808  0.67677404    -0.28800
H719        H  0.10437635  0.64599514  0.64841973     0.15400
H720        H  0.13796795  0.60685017  0.69427072     0.15900
C721        C  0.38372688  0.50569460  0.67042016    -0.13700
C722        C  0.34733885  0.98131397  0.65988068    -0.28800
H723        H  0.38409991  0.53099126  0.66679218     0.15400
H724        H  0.34737038  0.95614482  0.65857443     0.15900
C725        C  0.09784011  0.98302335  0.66234068    -0.13700
C726        C  0.13364016  0.50843188  0.65564918    -0.28800
H727        H  0.09849167  0.95825033  0.65997607     0.15400
H728        H  0.13407860  0.53386789  0.65589596     0.15900
C729        C  0.25929540  0.74890426  0.83594979    -0.13700
C730        C  0.24272309  0.76098070  0.81120856    -0.28800
H731        H  0.27463233  0.73765234  0.82358338     0.15400
H732        H  0.22939409  0.77440548  0.82341671     0.15900
C733        C  0.24123930  0.86435950  0.98453915    -0.13700
C734        C  0.27304529  0.89514381  0.98961511    -0.28800
H735        H  0.21648346  0.86499433  0.98093025     0.15400
H736        H  0.29795666  0.89456914  0.98989939     0.15900
C737        C  0.27353113  0.64488707  0.99609838    -0.13700
C738        C  0.24136215  0.61424518  0.99853035    -0.28800
H739        H  0.29821869  0.64403052  0.99403718     0.15400
H740        H  0.21664989  0.61516538  0.99692552     0.15900
C741        C  0.23110068  0.49485003  0.85411622    -0.13700
C742        C  0.25711087  0.50238982  0.82781446    -0.28800
H743        H  0.29200374  0.01501984  0.83311679     0.15400
H744        H  0.28403747  0.51087473  0.83873323     0.15900
C745        C  0.37976818  0.64122987  0.00262904    -0.13700
C746        C  0.37595673  0.61076066  0.98626240    -0.28800
H747        H  0.36000721  0.63975685  0.02342046     0.15400
H748        H  0.39541249  0.61200813  0.96518353     0.15900
C749        C  0.13377089  0.86488883  0.00610980    -0.13700
C750        C  0.13523944  0.89571575  0.99331785    -0.28800
H751        H  0.15608697  0.86567232  0.02248030     0.15400
H752        H  0.11328104  0.89501326  0.97626020     0.15900
C753        C  0.98873637  0.73292374  0.81831314    -0.13700
C754        C  0.01292246  0.75897754  0.84171502    -0.28800
H755        H  0.45937353  0.71620968  0.82773287     0.15400
H756        H  0.03348976  0.78383314  0.82839302     0.15900
C757        C  0.38345938  0.89419262  0.98122913    -0.13700
C758        C  0.38413085  0.86299101  0.97990375    -0.28800
H759        H  0.35824684  0.89406856  0.97861117     0.15400
H760        H  0.40939060  0.86311490  0.97963813     0.15900
C761        C  0.13255252  0.61288803  0.97960187    -0.13700
C762        C  0.13188486  0.64418803  0.97836585    -0.28800
H763        H  0.15780428  0.61317516  0.97767555     0.15400
H764        H  0.10650283  0.64380749  0.97772853     0.15900
C765        C  0.02008073  0.89315281  0.99977127    -0.13700
C766        C  0.49006246  0.86035798  0.01107586    -0.28800
H767        H  0.53867127  0.89041428  0.97924631     0.15400
H768        H  0.96985530  0.86098783  0.02804918     0.15900
C769        C  0.02226559  0.64371814  0.00948906    -0.13700
C770        C  0.48759973  0.60916157  0.98284189    -0.28800
H771        H  0.04470244  0.64350204  0.02438277     0.15400
H772        H  0.46855895  0.61079084  0.96254962     0.15900
C773        C  0.51527693  0.01005203  0.85275121    -0.13700
C774        C  0.49086834  0.48564577  0.82770345    -0.28800
H775        H  0.96141163  0.49099254  0.84419460     0.15400
H776        H  0.46117893  0.99497877  0.84275014     0.15900
C777        C  0.26109975  0.75172007  0.47867670    -0.13700
C778        C  0.23538535  0.75105663  0.50110534    -0.28800
H779        H  0.28395610  0.75162661  0.49274721     0.15400
H780        H  0.21108276  0.74805003  0.48722475     0.15900
C781        C  0.24029169  0.73564104  0.17083743    -0.13700
C782        C  0.26165181  0.76206958  0.14580976    -0.28800
H783        H  0.21951431  0.71022428  0.15906787     0.15400
H784        H  0.28172546  0.78776533  0.15771196     0.15900
C785        C  0.25054262  0.99039837  0.48941284    -0.13700
C786        C  0.25279480  0.48210604  0.52089673    -0.28800
H787        H  0.24639033  0.52623014  0.50621518     0.15400
H788        H  0.23236143  0.02680690  0.49923052     0.15900
C789        C  0.26922372  0.87367367  0.31591368    -0.13700
C790        C  0.23756862  0.87255122  0.32180334    -0.28800
H791        H  0.29366051  0.89897401  0.31093612     0.15400
H792        H  0.21285587  0.84700737  0.32356039     0.15900
C793        C  0.27001331  0.62375728  0.31901571    -0.13700
C794        C  0.23805693  0.62270966  0.32148626    -0.28800
H795        H  0.29461690  0.64890530  0.31403495     0.15400
H796        H  0.21327233  0.59723618  0.32336161     0.15900
C797        C  0.24077991  0.98488056  0.18081420    -0.13700
C798        C  0.26209729  0.50978179  0.16307260    -0.28800
H799        H  0.22195129  0.45691601  0.17640424     0.15400
H800        H  0.27791750  0.03887427  0.16838176     0.15900
C801        C  0.00407167  0.74527818  0.48656331    -0.13700
C802        C  0.99236823  0.76235067  0.50985227    -0.28800
H803        H  0.01288355  0.72786418  0.50017362     0.15400
H804        H  0.50842124  0.72076057  0.49788083     0.15900
C805        C  0.37809531  0.76561483  0.30947775    -0.13700
C806        C  0.37790172  0.73421234  0.31555693    -0.28800
H807        H  0.40288852  0.79035625  0.30364986     0.15400
H808        H  0.35280249  0.70912191  0.31829508     0.15900
C809        C  0.12889624  0.76598149  0.31747299    -0.13700
C810        C  0.12768970  0.73383563  0.31844817    -0.28800
H811        H  0.15419206  0.79081214  0.31454055     0.15400
H812        H  0.10215218  0.70903504  0.31816615     0.15900
C813        C  0.99058088  0.74098608  0.17666975    -0.13700
C814        C  0.01899354  0.75596628  0.15240669    -0.28800
H815        H  0.46090876  0.72124720  0.16301399     0.15400
H816        H  0.04585327  0.76849077  0.16509813     0.15900
C817        C  0.00052434  0.48812553  0.49618583    -0.13700
C818        C  0.49506882  0.50782330  0.51820857    -0.28800
H819        H  0.00676095  0.46853409  0.50908018     0.15400
H820        H  0.48764103  0.02601172  0.50517193     0.15900
C821        C  0.48896705  0.87620870  0.30560614    -0.13700
C822        C  0.01872893  0.87440824  0.31375253    -0.28800
H823        H  0.46427886  0.85067897  0.30325392     0.15400
H824        H  0.04330751  0.90008924  0.31517004     0.15900
C825        C  0.01924896  0.62279524  0.32618779    -0.13700
C826        C  0.49072845  0.62729532  0.33730920    -0.28800
H827        H  0.04436926  0.64779226  0.32304146     0.15400
H828        H  0.46594725  0.60192661  0.33434636     0.15900
C829        C  0.37712310  0.98281741  0.32489780    -0.13700
C830        C  0.37909258  0.51513211  0.32990533    -0.28800
H831        H  0.35170635  0.95793454  0.32352678     0.15400
H832        H  0.40420844  0.54036955  0.32900898     0.15900
C833        C  0.12786330  0.51511956  0.33192095    -0.13700
C834        C  0.12564006  0.98074397  0.33738773    -0.28800
H835        H  0.15277427  0.54021113  0.32813771     0.15400
H836        H  0.10058682  0.95567952  0.33427028     0.15900
C837        C  0.49437817  0.99357545  0.16141464    -0.13700
C838        C  0.51719101  0.01853672  0.18699194    -0.28800
H839        H  0.47270037  0.96843130  0.17285543     0.15400
H840        H  0.97089949  0.46267703  0.17351977     0.15900
Zn841      Zn  0.52550129  0.47821100  0.37007230     1.49700
Zn842      Zn  0.54359525  0.03867258  0.31351795     1.49400
Zn843      Zn  0.96131317  0.45754415  0.30944250     1.49100
Zn844      Zn  0.97638077  0.01250663  0.37391379     1.49500
O845        O  0.50225495  0.99752527  0.33910893    -1.81400
O846        O  0.56901718  0.98984833  0.36702393    -0.72000
O847        O  0.53836145  0.03430201  0.25344334    -0.71800
O848        O  0.96161516  0.40968895  0.31609683    -0.71300
O849        O  0.59014950  0.03792628  0.32740094    -0.72000
O850        O  0.00943918  0.42787796  0.35527380    -0.71600
O851        O  0.96986734  0.46703258  0.25050332    -0.72200
O852        O  0.93469632  0.50272849  0.36443744    -0.71600
O853        O  0.54253716  0.08511360  0.32426171    -0.72300
O854        O  0.91457940  0.45856045  0.32044449    -0.71700
O855        O  0.49592565  0.06499245  0.36469872    -0.72200
O856        O  0.97973509  0.00198488  0.43244346    -0.72100
O857        O  0.51832673  0.47919452  0.42922143    -0.71900
C858        C  0.59423418  0.01461129  0.34737153     0.79900
C859        C  0.99549987  0.49060797  0.22980268     0.80400
C860        C  0.98595902  0.40487530  0.33241213     0.79300
C861        C  0.91034855  0.48069086  0.34151128     0.79700
C862        C  0.51933881  0.08940677  0.34289712     0.80900
C863        C  0.49559681  0.98532346  0.45109696     0.79900
Zn864      Zn  0.52399357  0.22886094  0.37125290     1.49700
Zn865      Zn  0.53938214  0.28465074  0.29967648     1.49400
Zn866      Zn  0.96242031  0.20850296  0.30466771     1.49100
Zn867      Zn  0.98559886  0.27068228  0.36829062     1.49500
O868        O  0.50279265  0.24857161  0.33543036    -1.81400
O869        O  0.57413598  0.24719299  0.35973204    -0.72000
O870        O  0.52593009  0.26946038  0.24193439    -0.71800
O871        O  0.96195631  0.16071229  0.31747593    -0.71300
O872        O  0.58750137  0.28553479  0.30886582    -0.72000
O873        O  0.00873241  0.18073210  0.35876441    -0.71600
O874        O  0.96880622  0.21630885  0.24495343    -0.72200
O875        O  0.93611459  0.25716894  0.35402227    -0.71600
O876        O  0.53914966  0.33272249  0.30442806    -0.72300
O877        O  0.91598308  0.21037565  0.31390212    -0.71700
O878        O  0.50273050  0.32154134  0.35571099    -0.72200
O879        O  0.99064107  0.26264973  0.42741827    -0.72100
O880        O  0.51634027  0.23188754  0.42932449    -0.71900
C881        C  0.59529538  0.26690516  0.33279829     0.79900
C882        C  0.49866124  0.24348159  0.22547885     0.80400
C883        C  0.98453786  0.15597283  0.33819920     0.79300
C884        C  0.91194737  0.23417096  0.33165144     0.79700
C885        C  0.52143122  0.34162118  0.32734308     0.80900
C886        C  0.50225564  0.24682901  0.44840481     0.79900
Zn887      Zn  0.78656848  0.03408250  0.30484139     1.49700
Zn888      Zn  0.72049139  0.46807236  0.29837267     1.49400
Zn889      Zn  0.77094187  0.47736038  0.37381731     1.49100
Zn890      Zn  0.73656201  0.02185825  0.37971355     1.49500
O891        O  0.75521938  0.50206454  0.33685214    -1.81400
O892        O  0.76740076  0.01649568  0.24935399    -0.72000
O893        O  0.71998768  0.41957083  0.30295154    -0.71800
O894        O  0.82827132  0.00068938  0.36064899    -0.71300
O895        O  0.73805224  0.48634845  0.24253653    -0.72000
O896        O  0.83486378  0.03414178  0.30665379    -0.71600
O897        O  0.75368582  0.42770110  0.35712896    -0.72200
O898        O  0.74299022  0.01522017  0.43802531    -0.71600
O899        O  0.67211815  0.46763463  0.30329801    -0.72300
O900        O  0.76186218  0.48116581  0.43283660    -0.71700
O901        O  0.68242633  0.50092096  0.35725891    -0.72200
O902        O  0.75466577  0.07193594  0.36584295    -0.72100
O903        O  0.78714523  0.08237977  0.31107512    -0.71900
C904        C  0.76564818  0.51372125  0.22850696     0.79900
C905        C  0.73648848  0.40930499  0.32712424     0.80400
C906        C  0.84554416  0.01741243  0.32991792     0.79300
C907        C  0.75003746  0.49982403  0.44887579     0.79700
C908        C  0.66282479  0.48381081  0.32800977     0.80900
C909        C  0.77127875  0.09158776  0.33631386     0.79900
Zn910      Zn  0.73524806  0.27284225  0.36879132     1.49700
Zn911      Zn  0.71328379  0.20905509  0.30760321     1.49400
Zn912      Zn  0.78839326  0.28580404  0.29712000     1.49100
Zn913      Zn  0.77745502  0.23266324  0.36973052     1.49500
O914        O  0.75363198  0.25019383  0.33463142    -1.81400
O915        O  0.68496839  0.25550577  0.35746272    -0.72000
O916        O  0.72153261  0.21480852  0.24856479    -0.71800
O917        O  0.78792794  0.33401942  0.30111739    -0.71300
O918        O  0.66619558  0.21000389  0.31562553    -0.72000
O919        O  0.75213963  0.32264105  0.35294893    -0.71600
O920        O  0.77124812  0.26757793  0.24135219    -0.72200
O921        O  0.82650503  0.25055314  0.35461206    -0.71600
O922        O  0.71321784  0.16186411  0.32029538    -0.72300
O923        O  0.83764346  0.28744468  0.30290642    -0.71700
O924        O  0.76112081  0.18224542  0.35982321    -0.72200
O925        O  0.77546199  0.24158961  0.42776276    -0.72100
O926        O  0.74290558  0.26844445  0.42748494    -0.71900
C927        C  0.66116165  0.23249447  0.33486223     0.79900
C928        C  0.74519528  0.23923145  0.22666708     0.80400
C929        C  0.77025276  0.34274140  0.32435304     0.79300
C930        C  0.84654303  0.26946321  0.32659281     0.79700
C931        C  0.73694064  0.15761188  0.33901386     0.80900
C932        C  0.76008809  0.25567231  0.44607091     0.79900
Zn933      Zn  0.52613344  0.04250030  0.04321604     1.49700
Zn934      Zn  0.99142087  0.46320435  0.04357476     1.49400
Zn935      Zn  0.96662094  0.50175781  0.97966262     1.49100
Zn936      Zn  0.54576144  0.00339157  0.97574370     1.49500
O937        O  0.00833783  0.50315190  0.00634603    -1.81400
O938        O  0.51822009  0.02798097  0.10167678    -0.72000
O939        O  0.94237594  0.42615368  0.02838530    -0.71800
O940        O  0.96645147  0.04910019  0.97509146    -0.71300
O941        O  0.99569072  0.47780230  0.10167375    -0.72000
O942        O  0.50941307  0.07623443  0.02984535    -0.71600
O943        O  0.92043973  0.45384777  0.99090161    -0.72200
O944        O  0.53785029  0.00766902  0.91680228    -0.71600
O945        O  0.01373089  0.43367645  0.03554683    -0.72300
O946        O  0.97089140  0.49923710  0.92067542    -0.71700
O947        O  0.54374767  0.45503479  0.99693972    -0.72200
O948        O  0.59401041  0.04950126  0.98793757    -0.72100
O949        O  0.57665640  0.07548180  0.03227006    -0.71900
C950        C  0.01541708  0.50821053  0.11783047     0.79900
C951        C  0.91749573  0.42541562  0.00713301     0.80400
C952        C  0.98297949  0.07453173  0.00002354     0.79300
C953        C  0.99371662  0.49790072  0.89845266     0.79700
C954        C  0.52153964  0.42775833  0.01739046     0.80900
C955        C  0.59990547  0.07652201  0.00893058     0.79900
Zn956      Zn  0.55093156  0.25573523  0.03221955     1.49700
Zn957      Zn  0.98187841  0.21255564  0.96300568     1.49400
Zn958      Zn  0.96807657  0.25089665  0.03610540     1.49100
Zn959      Zn  0.52755673  0.29745140  0.97017698     1.49500
O960        O  0.00372077  0.25159029  0.00033564    -1.81400
O961        O  0.54736994  0.20666224  0.02375886    -0.72000
O962        O  0.93140135  0.18029782  0.97413516    -0.71800
O963        O  0.98221963  0.24892542  0.09405549    -0.71300
O964        O  0.99822810  0.17838662  0.97399123    -0.72000
O965        O  0.54552634  0.25852390  0.09198084    -0.71600
O966        O  0.92012043  0.20287635  0.02758683    -0.72200
O967        O  0.51162343  0.32888392  0.99010393    -0.71600
O968        O  0.98864110  0.22673056  0.90531494    -0.72300
O969        O  0.97142498  0.30086115  0.03054814    -0.71700
O970        O  0.51841200  0.28983787  0.91201335    -0.72200
O971        O  0.57814468  0.32876663  0.97678482    -0.72100
O972        O  0.59818030  0.30191091  0.01835770    -0.71900
C973        C  0.52749009  0.18070323  0.00057717     0.79900
C974        C  0.91141339  0.17731931  0.00285204     0.80400
C975        C  0.00996178  0.25049442  0.11013268     0.79300
C976        C  0.98702432  0.32641734  0.00498128     0.79700
C977        C  0.00816743  0.25697964  0.88865417     0.80900
C978        C  0.60295185  0.32911951  0.99755072     0.79900
Zn979      Zn  0.74110817  0.46187956  0.03646244     1.49700
Zn980      Zn  0.72592030  0.50477772  0.96805225     1.49400
Zn981      Zn  0.77642845  0.04327879  0.04267439     1.49100
Zn982      Zn  0.78566533  0.00105921  0.97173140     1.49500
O983        O  0.75177608  0.00132018  0.00983270    -1.81400
O984        O  0.69228984  0.42996308  0.02101751    -0.72000
O985        O  0.71405293  0.05072282  0.98813604    -0.71800
O986        O  0.76919850  0.03404961  0.10127370    -0.71300
O987        O  0.67866006  0.45659363  0.97216538    -0.72000
O988        O  0.74252043  0.46901904  0.09498701    -0.71600
O989        O  0.76339653  0.07872899  0.02530888    -0.72200
O990        O  0.83245248  0.05087810  0.97455476    -0.71600
O991        O  0.74035940  0.50818229  0.91024419    -0.72300
O992        O  0.82758084  0.07197140  0.03274269    -0.71700
O993        O  0.76638233  0.99737983  0.91479799    -0.72200
O994        O  0.80165545  0.45778440  0.97838578    -0.72100
O995        O  0.75909481  0.43034843  0.02373443    -0.71900
C996        C  0.67127578  0.42915390  0.99393796     0.79900
C997        C  0.73934640  0.07925495  0.00375288     0.80400
C998        C  0.75505368  0.00556790  0.12227518     0.79300
C999        C  0.84394292  0.07589553  0.00044747     0.79700
C1000       C  0.73819534  0.99609858  0.90034102     0.80900
C1001       C  0.78061074  0.43001833  0.99891656     0.79900
Zn1002     Zn  0.79244981  0.25311852  0.96400801     1.49700
Zn1003     Zn  0.71734492  0.25321254  0.97502614     1.49400
Zn1004     Zn  0.74104983  0.21350950  0.03976969     1.49100
Zn1005     Zn  0.78218193  0.29412064  0.03542744     1.49500
O1006       O  0.75814679  0.25302046  0.00208101    -1.81400
O1007       O  0.77487913  0.25386080  0.90668020    -0.72000
O1008       O  0.67061372  0.20469607  0.98587200    -0.71800
O1009       O  0.76101015  0.18299671  0.02797168    -0.71300
O1010       O  0.72473255  0.25557420  0.91560893    -0.72000
O1011       O  0.79155260  0.20462502  0.97145849    -0.71600
O1012       O  0.69115549  0.17860979  0.02800650    -0.72200
O1013       O  0.77450450  0.28564761  0.09355408    -0.71600
O1014       O  0.71806487  0.30089077  0.98544482    -0.72300
O1015       O  0.74637031  0.22650670  0.09847184    -0.71700
O1016       O  0.76969369  0.32942572  0.01846722    -0.72200
O1017       O  0.83287328  0.32183908  0.02699843    -0.72100
O1018       O  0.84183216  0.30077222  0.97090687    -0.71900
C1019       C  0.74793883  0.25549255  0.89275913     0.79900
C1020       C  0.66651763  0.17727953  0.00587225     0.80400
C1021       C  0.77655451  0.17979341  0.99790015     0.79300
C1022       C  0.76041686  0.25724817  0.11449063     0.79700
C1023       C  0.74431030  0.32963953  0.99951232     0.80900
C1024       C  0.85214023  0.32509228  0.99756045     0.79900
Zn1025     Zn  0.95824484  0.47750774  0.71358142     1.49700
Zn1026     Zn  0.99302592  0.46155748  0.63799673     1.49400
Zn1027     Zn  0.48958375  0.03841375  0.64027957     1.49100
Zn1028     Zn  0.53072758  0.02119027  0.70994041     1.49500
O1029       O  0.98817298  0.99748491  0.67144528    -1.81400
O1030       O  0.92391438  0.42681460  0.70302810    -0.72000
O1031       O  0.99356215  0.47777351  0.58058649    -0.71800
O1032       O  0.94103138  0.03679954  0.64632979    -0.71300
O1033       O  0.94265712  0.41675719  0.64570878    -0.72000
O1034       O  0.92428540  0.49445729  0.70427525    -0.71600
O1035       O  0.48910864  0.02691238  0.58204791    -0.72200
O1036       O  0.56389017  0.07108424  0.69608327    -0.71600
O1037       O  0.53899833  0.45377888  0.63723058    -0.72300
O1038       O  0.53768084  0.08595259  0.64771133    -0.71700
O1039       O  0.56291557  0.00267958  0.70059171    -0.72200
O1040       O  0.51833682  0.01623622  0.76811734    -0.72100
O1041       O  0.97503129  0.48483668  0.77112223    -0.71900
C1042       C  0.91841894  0.40819439  0.67209922     0.79900
C1043       C  0.98657482  0.00002520  0.56130602     0.80400
C1044       C  0.91262437  0.01303920  0.66361022     0.79300
C1045       C  0.56498792  0.09285981  0.66960598     0.79700
C1046       C  0.56692102  0.47232041  0.65883493     0.80900
C1047       C  0.98541160  0.99769528  0.78398555     0.79900
Zn1048     Zn  0.49224093  0.28981006  0.64083671     1.49700
Zn1049     Zn  0.52883392  0.26532100  0.70810788     1.49400
Zn1050     Zn  0.94896937  0.22777022  0.70007352     1.49100
Zn1051     Zn  0.99039752  0.21396889  0.63042420     1.49500
O1052       O  0.49004647  0.24861050  0.66967830    -1.81400
O1053       O  0.54117962  0.33578735  0.65227509    -0.72000
O1054       O  0.51424090  0.26151796  0.76517716    -0.71800
O1055       O  0.91818349  0.24786224  0.69091917    -0.71300
O1056       O  0.56581377  0.31402341  0.69477615    -0.72000
O1057       O  0.94451132  0.29003733  0.64424678    -0.71600
O1058       O  0.95761939  0.22583768  0.75829566    -0.72200
O1059       O  0.94216762  0.16501030  0.63626229    -0.71600
O1060       O  0.55820192  0.24287942  0.70260406    -0.72300
O1061       O  0.91603000  0.17991909  0.68275173    -0.71700
O1062       O  0.54071195  0.21717272  0.64316207    -0.72200
O1063       O  0.99241540  0.23091711  0.57291987    -0.72100
O1064       O  0.49250967  0.28247275  0.58161181    -0.71900
C1065       C  0.56823325  0.33883382  0.67210632     0.79900
C1066       C  0.48417176  0.24118072  0.78136945     0.80400
C1067       C  0.91735219  0.26948284  0.66559946     0.79300
C1068       C  0.91486469  0.15806265  0.65743075     0.79700
C1069       C  0.56405236  0.23065872  0.67132979     0.80900
C1070       C  0.49293044  0.25848682  0.56043163     0.79900
Zn1071     Zn  0.73816955  0.03723142  0.64575923     1.49700
Zn1072     Zn  0.78389079  0.01840744  0.70548623     1.49400
Zn1073     Zn  0.70289957  0.47846611  0.70381190     1.49100
Zn1074     Zn  0.74570321  0.45441669  0.64619370     1.49500
O1075       O  0.74031292  0.99811391  0.67471970    -1.81400
O1076       O  0.78571745  0.08530317  0.65159901    -0.72000
O1077       O  0.77733072  0.01230804  0.76456189    -0.73000
O1078       O  0.66972087  0.49400659  0.68510211    -0.71300
O1079       O  0.81689835  0.06804488  0.68997373    -0.72000
O1080       O  0.69104410  0.03603349  0.65850308    -0.71600
O1081       O  0.71385693  0.48840774  0.76224960    -0.72200
O1082       O  0.69714563  0.40743035  0.65605949    -0.71600
O1083       O  0.81380232  0.99976526  0.68901696    -0.72300
O1084       O  0.67034964  0.42763477  0.69555649    -0.71700
O1085       O  0.79305455  0.45569677  0.66275128    -0.72200
O1086       O  0.74943785  0.46055620  0.58596447    -0.72100
O1087       O  0.73625151  0.02894241  0.58675179    -0.71900
C1088       C  0.81525701  0.09103585  0.66751810     0.79900
C1089       C  0.74984623  0.99671339  0.78648597     0.80400
C1090       C  0.66496117  0.01439210  0.68052006     0.79300
C1091       C  0.66952525  0.40305666  0.67473962     0.79700
C1092       C  0.82057654  0.48062953  0.68052044     0.80900
C1093       C  0.74012473  0.00679328  0.56588412     0.79900
Zn1094     Zn  0.74185055  0.28665867  0.70656111     1.49700
Zn1095     Zn  0.74283010  0.21262515  0.69703101     1.49400
Zn1096     Zn  0.70034373  0.23384706  0.63324308     1.49100
Zn1097     Zn  0.78115188  0.27515469  0.63180627     1.49500
O1098       O  0.74163305  0.25222706  0.66848970    -1.81400
O1099       O  0.74484906  0.27114390  0.76395395    -0.72000
O1100       O  0.69353255  0.16636169  0.69012970    -0.71800
O1101       O  0.66846913  0.25077215  0.64825560    -0.71300
O1102       O  0.74876056  0.22213266  0.75629626    -0.72000
O1103       O  0.69209024  0.28455795  0.70196263    -0.71600
O1104       O  0.66734270  0.18306112  0.64355405    -0.72200
O1105       O  0.76874854  0.26978187  0.57350023    -0.71600
O1106       O  0.78926216  0.21232894  0.68372069    -0.72300
O1107       O  0.70961816  0.24255626  0.57478834    -0.71700
O1108       O  0.81528147  0.25912514  0.64246755    -0.72200
O1109       O  0.81280737  0.32524788  0.64469656    -0.72100
O1110       O  0.79064788  0.33462349  0.69981107    -0.71900
C1111       C  0.74870524  0.24570880  0.77854421     0.79900
C1112       C  0.66616945  0.16037804  0.66883307     0.80400
C1113       C  0.66576718  0.26707837  0.67773374     0.79300
C1114       C  0.73867987  0.25660952  0.55563017     0.79700
C1115       C  0.81653083  0.23558813  0.66427396     0.80900
C1116       C  0.81620580  0.34394239  0.67489695     0.79900
C1117       C  0.88018381  0.12449743  0.65378521    -0.13700
C1118       C  0.84907341  0.12454093  0.65994589    -0.28800
H1119       H  0.88005964  0.09955948  0.64907240     0.15400
H1120       H  0.84895553  0.14964728  0.66156618     0.15900
C1121       C  0.63453900  0.36978234  0.67152155    -0.13700
C1122       C  0.60379711  0.37133821  0.66920071    -0.28800
H1123       H  0.63373054  0.34417186  0.67144015     0.15400
H1124       H  0.60496595  0.39696584  0.66574369     0.15900
C1125       C  0.88261420  0.26774406  0.65922282    -0.13700
C1126       C  0.85152011  0.23763049  0.66911612    -0.28800
H1127       H  0.88232011  0.29031787  0.64466487     0.15400
H1128       H  0.85198963  0.21500005  0.68329640     0.15900
C1129       C  0.62973445  0.26230336  0.68463714    -0.13700
C1130       C  0.60013499  0.23531792  0.66652503    -0.28800
H1131       H  0.62713974  0.27979054  0.70561450     0.15400
H1132       H  0.60284612  0.21810858  0.64524863     0.15900
C1133       C  0.88196437  0.37743605  0.66552615    -0.13700
C1134       C  0.85230803  0.37522902  0.68235037    -0.28800
H1135       H  0.87917125  0.35733172  0.64440810     0.15400
H1136       H  0.85496802  0.39526523  0.70348411     0.15900
C1137       C  0.59991850  0.12555803  0.66276351    -0.13700
C1138       C  0.63115449  0.12765194  0.67516112    -0.28800
H1139       H  0.60020465  0.14734706  0.64568868     0.15400
H1140       H  0.63080509  0.10577721  0.69212369     0.15900
C1141       C  0.87799382  0.01118686  0.65725577    -0.13700
C1142       C  0.85552383  0.48215035  0.68014509    -0.28800
H1143       H  0.87747271  0.03614663  0.65566842     0.15400
H1144       H  0.85604173  0.45718811  0.68085481     0.15900
C1145       C  0.60121429  0.47410975  0.65050053    -0.13700
C1146       C  0.63041319  0.01348389  0.67818007    -0.28800
H1147       H  0.60236302  0.44955463  0.65225599     0.15400
H1148       H  0.63052597  0.03875751  0.67837190     0.15900
C1149       C  0.74322272  0.25833144  0.84921045    -0.13700
C1150       C  0.75423907  0.24345146  0.82206357    -0.28800
H1151       H  0.72844272  0.27143942  0.83932720     0.15400
H1152       H  0.76650766  0.22792149  0.83210255     0.15900
C1153       C  0.74648753  0.36463277  0.99475133    -0.13700
C1154       C  0.77870377  0.39535965  0.99352958    -0.28800
H1155       H  0.72174825  0.36554781  0.99454289     0.15400
H1156       H  0.80340314  0.39469537  0.99046543     0.15900
C1157       C  0.77415224  0.14474397  0.99352922    -0.13700
C1158       C  0.74193999  0.11435980  0.99733910    -0.28800
H1159       H  0.79855463  0.14359232  0.98996412     0.15400
H1160       H  0.71749214  0.11575028  0.99794609     0.15900
C1161       C  0.73089369  0.99260222  0.85680958    -0.13700
C1162       C  0.75590017  0.99770677  0.83013828    -0.28800
H1163       H  0.79477247  0.51710511  0.83590632     0.15400
H1164       H  0.78268525  0.00503050  0.84056307     0.15900
C1165       C  0.87907875  0.14182179  0.00915320    -0.13700
C1166       C  0.87540921  0.11155475  0.99225649    -0.28800
H1167       H  0.85934898  0.13998586  0.03020895     0.15400
H1168       H  0.89483132  0.11324988  0.97085771     0.15900
C1169       C  0.63673989  0.36339702  0.99981220    -0.13700
C1170       C  0.63873908  0.39450821  0.98707546    -0.28800
H1171       H  0.65925249  0.36365185  0.01519795     0.15400
H1172       H  0.61650353  0.39445289  0.97126743     0.15900
C1173       C  0.48179248  0.23794597  0.82490583    -0.13700
C1174       C  0.50453177  0.26494333  0.84812308    -0.28800
H1175       H  0.96015487  0.21476219  0.83478766     0.15400
H1176       H  0.52374119  0.29049662  0.83480444     0.15900
C1177       C  0.88477645  0.39043631  0.00157924    -0.13700
C1178       C  0.88564018  0.35987958  0.99437538    -0.28800
H1179       H  0.85923687  0.38944581  0.00448858     0.15400
H1180       H  0.91064679  0.36063611  0.98813609     0.15900
C1181       C  0.63352345  0.11106243  0.00547699    -0.13700
C1182       C  0.63306065  0.14239416  0.00357445    -0.28800
H1183       H  0.65864646  0.11102087  0.00465910     0.15400
H1184       H  0.60782639  0.14219148  0.00075592     0.15900
C1185       C  0.52234757  0.39404276  0.01623767    -0.13700
C1186       C  0.99251068  0.36257733  0.01287293    -0.28800
H1187       H  0.03776072  0.39003148  0.97521861     0.15400
H1188       H  0.47104007  0.36128212  0.04231688     0.15900
C1189       C  0.52425036  0.14517387  0.00674170    -0.13700
C1190       C  0.98638778  0.10991430  0.99239557    -0.28800
H1191       H  0.54490070  0.14372906  0.02428129     0.15400
H1192       H  0.96595086  0.11121389  0.97428745     0.15900
C1193       C  0.98703883  0.49507391  0.85512956    -0.13700
C1194       C  0.98297684  0.99789994  0.82778778    -0.28800
H1195       H  0.54044821  0.01593798  0.83942990     0.15400
H1196       H  0.03814930  0.50418103  0.84024096     0.15900
C1197       C  0.76253255  0.25706032  0.48976592    -0.13700
C1198       C  0.73710898  0.25735260  0.51190208    -0.28800
H1199       H  0.78454502  0.25556786  0.50413616     0.15400
H1200       H  0.71354280  0.25578089  0.49765756     0.15900
C1201       C  0.74231822  0.23401274  0.18315642    -0.13700
C1202       C  0.76169052  0.26120680  0.15803023    -0.28800
H1203       H  0.72372294  0.20759967  0.17162505     0.15400
H1204       H  0.77899979  0.28788053  0.16974840     0.15900
C1205       C  0.74819083  0.50192246  0.49251754    -0.13700
C1206       C  0.74242118  0.01170277  0.52232304    -0.28800
H1207       H  0.76973254  0.98319474  0.51388677     0.15400
H1208       H  0.75686259  0.45921735  0.50828246     0.15900
C1209       C  0.76897411  0.37620687  0.31851749    -0.13700
C1210       C  0.73737963  0.37593990  0.32057886    -0.28800
H1211       H  0.79396859  0.40134956  0.31554799     0.15400
H1212       H  0.71224798  0.35072613  0.32110433     0.15900
C1213       C  0.76956492  0.12472369  0.33120814    -0.13700
C1214       C  0.73807334  0.12412635  0.33623262    -0.28800
H1215       H  0.79392692  0.14965000  0.32457475     0.15400
H1216       H  0.71325902  0.09882278  0.33942823     0.15900
C1217       C  0.77031423  0.51918751  0.18501652    -0.13700
C1218       C  0.75683529  0.00954558  0.16600969    -0.28800
H1219       H  0.71829085  0.95626093  0.18029049     0.15400
H1220       H  0.73247594  0.46601827  0.17074440     0.15900
C1221       C  0.50108314  0.24304755  0.49232096    -0.13700
C1222       C  0.49332975  0.26269934  0.51649995    -0.28800
H1223       H  0.50779796  0.22379443  0.50525060     0.15400
H1224       H  0.98725233  0.28116979  0.49978464     0.15900
C1225       C  0.87969888  0.26790323  0.32171074    -0.13700
C1226       C  0.87891762  0.23610259  0.32658001    -0.28800
H1227       H  0.90471024  0.29248989  0.31629709     0.15400
H1228       H  0.85348051  0.21128345  0.32866922     0.15900
C1229       C  0.62856338  0.26566873  0.32891108    -0.13700
C1230       C  0.62779986  0.23376682  0.33067869    -0.28800
H1231       H  0.65371849  0.29064962  0.32590169     0.15400
H1232       H  0.60248199  0.20872254  0.33024019     0.15900
C1233       C  0.49543655  0.24131664  0.18154385    -0.13700
C1234       C  0.52391202  0.25615331  0.15730325    -0.28800
H1235       H  0.95975842  0.22287775  0.16754817     0.15400
H1236       H  0.55078752  0.26895985  0.16994432     0.15900
C1237       C  0.49542189  0.98228332  0.49520381    -0.13700
C1238       C  0.98532949  0.00174670  0.51730852    -0.28800
H1239       H  0.50004781  0.96176056  0.50856595     0.15400
H1240       H  0.98811620  0.52862948  0.50764385     0.15900
C1241       C  0.98824532  0.37242768  0.32528555    -0.13700
C1242       C  0.52088959  0.37537801  0.32119864    -0.28800
H1243       H  0.96364381  0.34672553  0.32527255     0.15400
H1244       H  0.54621662  0.40040070  0.32130880     0.15900
C1245       C  0.51795819  0.12272793  0.33856348    -0.13700
C1246       C  0.98488656  0.12193395  0.33801228    -0.28800
H1247       H  0.54302531  0.14802274  0.33891355     0.15400
H1248       H  0.95975479  0.09696490  0.33491118     0.15900
C1249       C  0.87739792  0.48292902  0.33893801    -0.13700
C1250       C  0.87768521  0.01502796  0.32131700    -0.28800
H1251       H  0.85183439  0.45837653  0.33595348     0.15400
H1252       H  0.90345648  0.03953999  0.32104258     0.15900
C1253       C  0.62809033  0.01415746  0.34671049    -0.13700
C1254       C  0.62975135  0.48551925  0.32276451    -0.28800
H1255       H  0.65311149  0.03949101  0.34631416     0.15400
H1256       H  0.60452278  0.46085677  0.31849167     0.15900
C1257       C  0.01757817  0.51175073  0.16160865    -0.13700
C1258       C  0.99326200  0.48669859  0.18599683    -0.28800
H1259       H  0.03917935  0.53636720  0.17398217     0.15400
H1260       H  0.53991110  0.04300859  0.17576017     0.15900
Zn1261     Zn  0.51776599  0.97045451  0.37208666     1.49700
Zn1262     Zn  0.54415243  0.54226243  0.30804753     1.49400
Zn1263     Zn  0.96539611  0.96311077  0.29850181     1.49100
Zn1264     Zn  0.98484235  0.51911203  0.37578681     1.49500
O1265       O  0.50550146  0.50144806  0.33732659    -1.81400
O1266       O  0.57563331  0.49621919  0.35740616    -0.72000
O1267       O  0.53254614  0.53645006  0.24927830    -0.71800
O1268       O  0.96547911  0.91465475  0.29893429    -0.71300
O1269       O  0.59126534  0.54066459  0.31338342    -0.72000
O1270       O  0.00126165  0.92272147  0.35096621    -0.71600
O1271       O  0.98310895  0.98374233  0.24395054    -0.72200
O1272       O  0.92720606  0.99620006  0.35658190    -0.71600
O1273       O  0.54541385  0.58966124  0.32146183    -0.72300
O1274       O  0.91710196  0.96276372  0.30275422    -0.71700
O1275       O  0.50116277  0.57016081  0.36511354    -0.72200
O1276       O  0.99105821  0.51171961  0.43485425    -0.72100
O1277       O  0.50639258  0.96780302  0.43093516    -0.71900
C1278       C  0.59769999  0.51865535  0.33285572     0.79900
C1279       C  0.01023927  0.01165582  0.23020255     0.80400
C1280       C  0.98368953  0.90484400  0.32096626     0.79300
C1281       C  0.90808711  0.97970839  0.32668796     0.79700
C1282       C  0.52378086  0.59451491  0.34258894     0.80900
C1283       C  0.50368372  0.49294667  0.44960398     0.79900
Zn1284     Zn  0.52719027  0.73645102  0.36636898     1.49700
Zn1285     Zn  0.53940800  0.78584964  0.28800998     1.49400
Zn1286     Zn  0.96302210  0.70929690  0.30122975     1.49100
Zn1287     Zn  0.98662994  0.77233377  0.36537279     1.49500
O1288       O  0.50423201  0.75199655  0.32667453    -1.81400
O1289       O  0.57783697  0.75429526  0.35283590    -0.72000
O1290       O  0.52200585  0.76760591  0.23187518    -0.71800
O1291       O  0.96386018  0.66160694  0.31034792    -0.71300
O1292       O  0.58705256  0.78515493  0.29593118    -0.72000
O1293       O  0.01028176  0.68020178  0.35185302    -0.71600
O1294       O  0.96964957  0.71914963  0.24176161    -0.72200
O1295       O  0.93660396  0.75573002  0.35390378    -0.71600
O1296       O  0.54109096  0.83539292  0.28981316    -0.72300
O1297       O  0.91602298  0.70942451  0.31291485    -0.71700
O1298       O  0.50316662  0.82461459  0.33914644    -0.72200
O1299       O  0.99260821  0.76602922  0.42450254    -0.72100
O1300       O  0.51983098  0.74551861  0.42425251    -0.71900
C1301       C  0.59680261  0.76994872  0.32252478     0.79900
C1302       C  0.49413824  0.74052710  0.21779483     0.80400
C1303       C  0.98683796  0.65642235  0.32959773     0.79300
C1304       C  0.91195480  0.73247447  0.33230396     0.79700
C1305       C  0.52259233  0.84442560  0.31128069     0.80900
C1306       C  0.50401842  0.76120791  0.43842479     0.79900
Zn1307     Zn  0.79623654  0.54289514  0.31037160     1.49700
Zn1308     Zn  0.71266656  0.95817749  0.31782674     1.49400
Zn1309     Zn  0.77935372  0.98321607  0.37818432     1.49100
Zn1310     Zn  0.73267915  0.52102380  0.36950021     1.49500
O1311       O  0.75369972  0.99928627  0.34394519    -1.81400
O1312       O  0.78966380  0.53696931  0.25108880    -0.72000
O1313       O  0.71301989  0.91153269  0.33115113    -0.71800
O1314       O  0.82157755  0.49432181  0.36489880    -0.71300
O1315       O  0.71879793  0.96318844  0.25793205    -0.72000
O1316       O  0.84226355  0.54070859  0.32264002    -0.71600
O1317       O  0.76236181  0.93326839  0.36849901    -0.72200
O1318       O  0.73942932  0.51758432  0.42788765    -0.71600
O1319       O  0.66590535  0.95884505  0.32869006    -0.72300
O1320       O  0.77569670  0.98867993  0.43700243    -0.71700
O1321       O  0.68635091  0.00538357  0.36922873    -0.72200
O1322       O  0.74685619  0.56991533  0.35411125    -0.72100
O1323       O  0.79645171  0.59063197  0.31886461    -0.71900
C1324       C  0.74134266  0.98786319  0.23525392     0.79900
C1325       C  0.73744830  0.90801835  0.34919797     0.80400
C1326       C  0.84614773  0.51743349  0.34300095     0.79300
C1327       C  0.75920603  0.00117930  0.45606152     0.79700
C1328       C  0.66161135  0.98173630  0.34806816     0.80900
C1329       C  0.77152820  0.59451650  0.33387279     0.79900
Zn1330     Zn  0.73001207  0.76612183  0.37155281     1.49700
Zn1331     Zn  0.72028771  0.71767198  0.29705552     1.49400
Zn1332     Zn  0.79514051  0.79348160  0.30910334     1.49100
Zn1333     Zn  0.77410801  0.72925207  0.36937343     1.49500
O1334       O  0.75478239  0.75182200  0.33536703    -1.81400
O1335       O  0.68113915  0.75135269  0.35349320    -0.72000
O1336       O  0.73855900  0.73596587  0.24144548    -0.71800
O1337       O  0.79498601  0.83952887  0.32431430    -0.71300
O1338       O  0.67180502  0.71765780  0.30020627    -0.72000
O1339       O  0.74874011  0.81704963  0.36565899    -0.71600
O1340       O  0.78707331  0.78946739  0.24959685    -0.72200
O1341       O  0.82269579  0.74377599  0.35510986    -0.71600
O1342       O  0.71984314  0.66922890  0.30321490    -0.72300
O1343       O  0.84251637  0.79242472  0.31704105    -0.71700
O1344       O  0.75384432  0.67903272  0.35754391    -0.72200
O1345       O  0.77237830  0.73634709  0.42766044    -0.72100
O1346       O  0.73297096  0.75504680  0.42973399    -0.71900
C1347       C  0.66228627  0.73461934  0.32354515     0.79900
C1348       C  0.76439099  0.76478897  0.22717023     0.80400
C1349       C  0.77233558  0.84275708  0.34542263     0.79300
C1350       C  0.84682524  0.76799312  0.33400516     0.79700
C1351       C  0.73636051  0.65971736  0.32832657     0.80900
C1352       C  0.75325389  0.74536538  0.44720114     0.79900
Zn1353     Zn  0.51640774  0.53992045  0.04010415     1.49700
Zn1354     Zn  0.97941822  0.95865417  0.03895556     1.49400
Zn1355     Zn  0.96510196  0.00087228  0.96899401     1.49100
Zn1356     Zn  0.54255439  0.50078423  0.98052485     1.49500
O1357       O  0.00120406  0.00072422  0.00553267    -1.81400
O1358       O  0.50940199  0.52610327  0.09914446    -0.72000
O1359       O  0.93118513  0.92566694  0.02073472    -0.71800
O1360       O  0.96757794  0.54973617  0.98768934    -0.71300
O1361       O  0.97982650  0.96768623  0.09704308    -0.72000
O1362       O  0.49488735  0.56941840  0.02550701    -0.71600
O1363       O  0.91643332  0.95336475  0.97411911    -0.72200
O1364       O  0.53770243  0.49848158  0.92034209    -0.71600
O1365       O  0.99934517  0.92764321  0.03047267    -0.72300
O1366       O  0.97992767  0.00149920  0.91195261    -0.71700
O1367       O  0.54153480  0.95343704  0.98213385    -0.72200
O1368       O  0.58766851  0.54970075  0.99052536    -0.72100
O1369       O  0.56642012  0.57666128  0.02828034    -0.71900
C1370       C  0.99579001  0.99598602  0.11757997     0.79900
C1371       C  0.90959805  0.92534429  0.99462349     0.80400
C1372       C  0.99033245  0.57759744  0.00670490     0.79300
C1373       C  0.00730167  0.00309505  0.89600974     0.79700
C1374       C  0.52252239  0.92679395  0.00525639     0.80900
C1375       C  0.59114251  0.57766318  0.00746010     0.79900
Zn1376     Zn  0.54294104  0.74956472  0.02471634     1.49700
Zn1377     Zn  0.98791101  0.71426627  0.96200174     1.49400
Zn1378     Zn  0.97373684  0.75334174  0.03401711     1.49100
Zn1379     Zn  0.52407937  0.79370789  0.96186452     1.49500
O1380       O  0.00969532  0.75443400  0.99814176    -1.81400
O1381       O  0.54004605  0.70096991  0.01480065    -0.72000
O1382       O  0.93734519  0.68268527  0.97363991    -0.71800
O1383       O  0.98771211  0.75268351  0.09189073    -0.71300
O1384       O  0.00368819  0.68008729  0.97627837    -0.72000
O1385       O  0.53494442  0.74985270  0.08351332    -0.71600
O1386       O  0.92706822  0.70556740  0.02754676    -0.72200
O1387       O  0.50297812  0.82348701  0.97241204    -0.71600
O1388       O  0.99466319  0.72648824  0.90317511    -0.72300
O1389       O  0.97280898  0.80047246  0.02734658    -0.71700
O1390       O  0.52413475  0.78648005  0.90320251    -0.72200
O1391       O  0.57209307  0.82721274  0.98015108    -0.72100
O1392       O  0.59072350  0.79706404  0.01830428    -0.71900
C1393       C  0.51947967  0.67506370  0.99186772     0.79900
C1394       C  0.91819901  0.67990606  0.00320550     0.80400
C1395       C  0.01539379  0.75470487  0.10853360     0.79300
C1396       C  0.99005658  0.82726104  0.00385126     0.79700
C1397       C  0.01078249  0.75676933  0.88547237     0.80900
C1398       C  0.59536174  0.82641046  0.00279824     0.79900
Zn1399     Zn  0.73420798  0.96134990  0.04726087     1.49700
Zn1400     Zn  0.71142342  0.00170005  0.98177576     1.49400
Zn1401     Zn  0.78138845  0.54281835  0.04132223     1.49100
Zn1402     Zn  0.80135061  0.50551945  0.97183399     1.49500
O1403       O  0.76259723  0.50408637  0.00332456    -1.81400
O1404       O  0.68395454  0.92766361  0.03564359    -0.72000
O1405       O  0.72375661  0.55070633  0.97800759    -0.71800
O1406       O  0.77239697  0.52812804  0.09982950    -0.71300
O1407       O  0.66451691  0.95523828  0.99418564    -0.72000
O1408       O  0.74057976  0.97475380  0.10621967    -0.71600
O1409       O  0.76374958  0.57561103  0.02720897    -0.72200
O1410       O  0.84764277  0.55288303  0.98255446    -0.71600
O1411       O  0.71549886  0.99763801  0.92265266    -0.72300
O1412       O  0.83205816  0.57611555  0.03193735    -0.71700
O1413       O  0.79212599  0.50877288  0.91307446    -0.72200
O1414       O  0.78793892  0.95418090  0.98085270    -0.72100
O1415       O  0.75263821  0.92926603  0.03354084    -0.71900
C1416       C  0.65991392  0.92726933  0.01319022     0.79900
C1417       C  0.74286118  0.57695094  0.00112494     0.80400
C1418       C  0.75593990  0.49707860  0.11589100     0.79300
C1419       C  0.85402032  0.57876536  0.00566186     0.79700
C1420       C  0.76716234  0.50952172  0.89313237     0.80900
C1421       C  0.77105491  0.92788010  0.00524338     0.79900
Zn1422     Zn  0.79044484  0.74957371  0.97007525     1.49700
Zn1423     Zn  0.71565058  0.75219617  0.96881737     1.49400
Zn1424     Zn  0.73211278  0.70865420  0.03611917     1.49100
Zn1425     Zn  0.77520303  0.79077938  0.03866215     1.49500
O1426       O  0.75313642  0.75051233  0.00230866    -1.81400
O1427       O  0.77529718  0.74443790  0.91253098    -0.72000
O1428       O  0.66595954  0.70550238  0.97850358    -0.71800
O1429       O  0.74903458  0.67577745  0.02349560    -0.71300
O1430       O  0.72700342  0.75059485  0.90990747    -0.72000
O1431       O  0.79430708  0.70431924  0.98168404    -0.71600
O1432       O  0.68226013  0.67798842  0.02364402    -0.72200
O1433       O  0.76987935  0.77735625  0.09780901    -0.71600
O1434       O  0.71823456  0.80140239  0.97771958    -0.72300
O1435       O  0.73691406  0.71818872  0.09437597    -0.71700
O1436       O  0.75817063  0.82464507  0.02721026    -0.72200
O1437       O  0.82507209  0.82355661  0.02405092    -0.72100
O1438       O  0.83716128  0.79837365  0.97371759    -0.71900
C1439       C  0.75075523  0.74615437  0.89280375     0.79900
C1440       C  0.65913865  0.67798685  0.00013305     0.80400
C1441       C  0.77271753  0.67627750  0.00141325     0.79300
C1442       C  0.75277444  0.74664766  0.11463296     0.79700
C1443       C  0.73799596  0.82730434  0.00115973     0.80900
C1444       C  0.84522181  0.82513975  0.99612061     0.79900
Zn1445     Zn  0.94693187  0.97585556  0.70528929     1.49700
Zn1446     Zn  0.98833177  0.96105687  0.63713022     1.49400
Zn1447     Zn  0.49331343  0.53129767  0.64410811     1.49100
Zn1448     Zn  0.53490370  0.50735732  0.70719220     1.49500
O1449       O  0.99623481  0.49851182  0.67425868    -1.81400
O1450       O  0.91687288  0.92478545  0.69653828    -0.72000
O1451       O  0.98756644  0.97407137  0.57885320    -0.71800
O1452       O  0.94722273  0.53678898  0.65718961    -0.71300
O1453       O  0.94070075  0.91347326  0.64430096    -0.72000
O1454       O  0.91281218  0.98980349  0.68688362    -0.71600
O1455       O  0.49349054  0.52601823  0.58414678    -0.72200
O1456       O  0.56744649  0.55877084  0.69950853    -0.71600
O1457       O  0.53894917  0.96263590  0.65206586    -0.72300
O1458       O  0.54050616  0.57774564  0.65652216    -0.71700
O1459       O  0.56701880  0.49113076  0.68754698    -0.72200
O1460       O  0.52363266  0.49802864  0.76667353    -0.72100
O1461       O  0.95659351  0.98518255  0.76374084    -0.71900
C1462       C  0.91474162  0.90475852  0.66823195     0.79900
C1463       C  0.99297460  0.50448097  0.56440582     0.80400
C1464       C  0.92151288  0.51581569  0.68009783     0.79300
C1465       C  0.56781459  0.58304184  0.67740577     0.79700
C1466       C  0.56478403  0.98173718  0.67603505     0.80900
C1467       C  0.00637438  0.49746767  0.78593436     0.79900
Zn1468     Zn  0.49209025  0.78411096  0.62203495     1.49700
Zn1469     Zn  0.52900605  0.77027870  0.69767732     1.49400
Zn1470     Zn  0.94892140  0.72419105  0.69784849     1.49100
Zn1471     Zn  0.99001677  0.71356159  0.62606326     1.49500
O1472       O  0.49040380  0.74806936  0.65970244    -1.81400
O1473       O  0.53906588  0.83320034  0.63123900    -0.72000
O1474       O  0.51525246  0.76318549  0.75508002    -0.71800
O1475       O  0.91860727  0.74586762  0.69575364    -0.71300
O1476       O  0.56160555  0.82034002  0.68497272    -0.72000
O1477       O  0.94067850  0.78589796  0.64620340    -0.71600
O1478       O  0.96043486  0.71938583  0.75511740    -0.72200
O1479       O  0.94223779  0.66462956  0.62969870    -0.71600
O1480       O  0.56214802  0.75326461  0.68974423    -0.72300
O1481       O  0.91455892  0.67744364  0.67641735    -0.71700
O1482       O  0.53676640  0.70741873  0.64804667    -0.72200
O1483       O  0.99174878  0.73120756  0.56950545    -0.72100
O1484       O  0.49663522  0.76981034  0.56575942    -0.71900
C1485       C  0.56444348  0.84134887  0.65669479     0.79900
C1486       C  0.48525716  0.74295757  0.77139249     0.80400
C1487       C  0.91561128  0.76647476  0.67060513     0.79300
C1488       C  0.91417873  0.65688427  0.64974024     0.79700
C1489       C  0.56353021  0.72997228  0.66873356     0.80900
C1490       C  0.49859234  0.74354513  0.55152479     0.79900
Zn1491     Zn  0.74210887  0.52754670  0.62855419     1.49700
Zn1492     Zn  0.78502248  0.52199656  0.70476482     1.49400
Zn1493     Zn  0.70138853  0.97488835  0.71272580     1.49100
Zn1494     Zn  0.73926877  0.96260371  0.63773082     1.49500
O1495       O  0.74412518  0.49551986  0.66981123    -1.81400
O1496       O  0.78776039  0.57758130  0.63143814    -0.72000
O1497       O  0.77322037  0.51932635  0.76367347    -0.73000
O1498       O  0.66714424  0.99210122  0.70386908    -0.71300
O1499       O  0.81542063  0.57125819  0.68501193    -0.72000
O1500       O  0.69274381  0.52531052  0.62931962    -0.71600
O1501       O  0.71826195  0.98072314  0.77142156    -0.72200
O1502       O  0.69024613  0.91628894  0.64153785    -0.71600
O1503       O  0.81948156  0.50581874  0.69799257    -0.72300
O1504       O  0.66779413  0.92448481  0.69721872    -0.71700
O1505       O  0.78477282  0.95818752  0.64320831    -0.72200
O1506       O  0.74230964  0.98087515  0.58166989    -0.72100
O1507       O  0.74532939  0.50937954  0.57480471    -0.71900
C1508       C  0.81502788  0.58902470  0.65469990     0.79900
C1509       C  0.74324351  0.50458769  0.78151918     0.80400
C1510       C  0.66685766  0.50921132  0.65380689     0.79300
C1511       C  0.66476073  0.90637661  0.66642297     0.79700
C1512       C  0.81302007  0.97824863  0.66347246     0.80900
C1513       C  0.74868299  0.48349549  0.56214078     0.79900
Zn1514     Zn  0.73889898  0.78698767  0.69887954     1.49700
Zn1515     Zn  0.74103204  0.71334525  0.70771750     1.49400
Zn1516     Zn  0.69707617  0.72432085  0.63655520     1.49100
Zn1517     Zn  0.77785080  0.76558572  0.63258600     1.49500
O1518       O  0.73884336  0.74758252  0.67009764    -1.81400
O1519       O  0.73664056  0.77757907  0.75815790    -0.72000
O1520       O  0.69455940  0.66413987  0.70208170    -0.71800
O1521       O  0.66412138  0.73993869  0.65028444    -0.71300
O1522       O  0.74052343  0.72826831  0.76488746    -0.72000
O1523       O  0.69229933  0.78818872  0.68803397    -0.71600
O1524       O  0.66747012  0.67401639  0.65038770    -0.72200
O1525       O  0.76373532  0.75777855  0.57452131    -0.71600
O1526       O  0.78992214  0.71603725  0.70147014    -0.72300
O1527       O  0.70467369  0.73100058  0.57785253    -0.71700
O1528       O  0.81105881  0.74850571  0.64586255    -0.72200
O1529       O  0.81132778  0.81626596  0.64209343    -0.72100
O1530       O  0.78748415  0.83276407  0.68991471    -0.71900
C1531       C  0.73797742  0.75386502  0.77998017     0.79900
C1532       C  0.66743592  0.65433990  0.67884432     0.80400
C1533       C  0.66396667  0.76410131  0.67079119     0.79300
C1534       C  0.73313772  0.74429064  0.55768801     0.79700
C1535       C  0.81493210  0.73270930  0.67609328     0.80900
C1536       C  0.81374010  0.83868287  0.66762753     0.79900
C1537       C  0.87984389  0.62347512  0.64330465    -0.13700
C1538       C  0.84822878  0.62294579  0.64657599    -0.28800
H1539       H  0.88024969  0.59866118  0.63973423     0.15400
H1540       H  0.84754597  0.64777444  0.64808187     0.15900
C1541       C  0.63009172  0.87360588  0.65964593    -0.13700
C1542       C  0.59942648  0.87470255  0.65343883    -0.28800
H1543       H  0.62920758  0.84802231  0.66276975     0.15400
H1544       H  0.60025225  0.90000631  0.64784092     0.15900
C1545       C  0.88053271  0.76459941  0.66745602    -0.13700
C1546       C  0.85047030  0.73627483  0.68266696    -0.28800
H1547       H  0.87868784  0.78479651  0.64940156     0.15400
H1548       H  0.85214391  0.71617389  0.70106411     0.15900
C1549       C  0.62918206  0.76200743  0.67578396    -0.13700
C1550       C  0.59826025  0.73167686  0.66619432    -0.28800
H1551       H  0.62879324  0.78494751  0.68817916     0.15400
H1552       H  0.59871102  0.70884546  0.65357430     0.15900
C1553       C  0.87972940  0.87238208  0.66139825    -0.13700
C1554       C  0.84904302  0.87091126  0.67341420    -0.28800
H1555       H  0.87882117  0.85069323  0.64440291     0.15400
H1556       H  0.85012662  0.89286928  0.69004880     0.15900
C1557       C  0.60185876  0.61713673  0.67375853    -0.13700
C1558       C  0.63365017  0.62060806  0.68604851    -0.28800
H1559       H  0.60118293  0.63903608  0.65799418     0.15400
H1560       H  0.63462234  0.59915332  0.70242804     0.15900
C1561       C  0.88651412  0.51410152  0.67784873    -0.13700
C1562       C  0.84705029  0.97916392  0.65713517    -0.28800
H1563       H  0.88593259  0.53882473  0.67315714     0.15400
H1564       H  0.84726233  0.95408506  0.65574552     0.15900
C1565       C  0.59910718  0.98206920  0.67478246    -0.13700
C1566       C  0.63167161  0.50628336  0.64655387    -0.28800
H1567       H  0.59901258  0.95707812  0.67063202     0.15400
H1568       H  0.63043420  0.53073795  0.64280137     0.15900
C1569       C  0.75026484  0.74218081  0.84907026    -0.13700
C1570       C  0.73627547  0.75647130  0.82374517    -0.28800
H1571       H  0.76384817  0.72886507  0.83723607     0.15400
H1572       H  0.72514326  0.77220145  0.83530248     0.15900
C1573       C  0.73904380  0.86213788  0.99831632    -0.13700
C1574       C  0.77055777  0.89360591  0.00029274    -0.28800
H1575       H  0.71391230  0.86216577  0.99576266     0.15400
H1576       H  0.79584806  0.89386404  0.99968599     0.15900
C1577       C  0.77348230  0.64264799  0.99852857    -0.13700
C1578       C  0.74251849  0.61079695  0.99737640    -0.28800
H1579       H  0.79920113  0.64371840  0.99810995     0.15400
H1580       H  0.71691262  0.60980936  0.99418500     0.15900
C1581       C  0.76975264  0.51180670  0.84913749    -0.13700
C1582       C  0.74177205  0.50544264  0.82545596    -0.28800
H1583       H  0.70465470  0.98715189  0.84638427     0.15400
H1584       H  0.71620820  0.49827920  0.83869985     0.15900
C1585       C  0.88671696  0.64459591  0.01106820    -0.13700
C1586       C  0.88594667  0.61415298  0.99953076    -0.28800
H1587       H  0.86504502  0.64336363  0.02838318     0.15400
H1588       H  0.90784264  0.61556712  0.98248096     0.15900
C1589       C  0.62720047  0.86106153  0.01258671    -0.13700
C1590       C  0.62736784  0.89245051  0.00646218    -0.28800
H1591       H  0.65027097  0.86085249  0.02577914     0.15400
H1592       H  0.60432471  0.89259316  0.99306709     0.15900
C1593       C  0.48324483  0.73856705  0.81497462    -0.13700
C1594       C  0.50935716  0.76215524  0.83885448    -0.28800
H1595       H  0.96652141  0.70919788  0.83156557     0.15400
H1596       H  0.53205110  0.78585828  0.82621461     0.15900
C1597       C  0.87668390  0.89069618  0.98854479    -0.13700
C1598       C  0.87793769  0.85981464  0.98972820    -0.28800
H1599       H  0.85122954  0.89007089  0.98625728     0.15400
H1600       H  0.90343667  0.86043303  0.98917686     0.15900
C1601       C  0.62440758  0.61235836  0.00300043    -0.13700
C1602       C  0.62467700  0.64391572  0.99810365    -0.28800
H1603       H  0.64946628  0.61205604  0.00376817     0.15400
H1604       H  0.59991825  0.64441718  0.99364312     0.15900
C1605       C  0.51884750  0.89133550  0.99802067    -0.13700
C1606       C  0.99145219  0.86152317  0.01124483    -0.28800
H1607       H  0.04178123  0.89356047  0.98330153     0.15400
H1608       H  0.47028270  0.86110222  0.03007999     0.15900
C1609       C  0.51596474  0.63935999  0.99766460    -0.13700
C1610       C  0.99208099  0.61244649  0.00035178    -0.28800
H1611       H  0.53525188  0.63735925  0.01722334     0.15400
H1612       H  0.96959859  0.61269195  0.98561673     0.15900
C1613       C  0.01043538  0.00410025  0.85217944    -0.13700
C1614       C  0.01200224  0.49858534  0.82933192    -0.28800
H1615       H  0.54480943  0.50262213  0.84193706     0.15400
H1616       H  0.95738153  0.99158067  0.84030025     0.15900
C1617       C  0.75564060  0.74513070  0.49090775    -0.13700
C1618       C  0.73017839  0.74418711  0.51401359    -0.28800
H1619       H  0.77856554  0.74481681  0.50444455     0.15400
H1620       H  0.70603576  0.74199231  0.50064593     0.15900
C1621       C  0.76843329  0.77005811  0.18352140    -0.13700
C1622       C  0.75003821  0.74282786  0.15837951    -0.28800
H1623       H  0.78731536  0.79650488  0.17195537     0.15400
H1624       H  0.73216186  0.71619932  0.17030878     0.15900
C1625       C  0.75801841  0.99794308  0.49982702    -0.13700
C1626       C  0.75192724  0.48006704  0.51874810    -0.28800
H1627       H  0.74223000  0.52197325  0.50337996     0.15400
H1628       H  0.73203963  0.02778755  0.50866843     0.15900
C1629       C  0.77095888  0.87606042  0.34530437    -0.13700
C1630       C  0.73894714  0.87487430  0.34674206    -0.28800
H1631       H  0.79579010  0.90145756  0.34300212     0.15400
H1632       H  0.71400287  0.84951179  0.34515249     0.15900
C1633       C  0.76993380  0.62766316  0.32822534    -0.13700
C1634       C  0.73810162  0.62673388  0.32347005    -0.28800
H1635       H  0.79471327  0.65312083  0.33022033     0.15400
H1636       H  0.71351944  0.60163062  0.31832511     0.15900
C1637       C  0.73739418  0.98260191  0.19156726    -0.13700
C1638       C  0.75139331  0.49256245  0.15940604    -0.28800
H1639       H  0.79052817  0.54530025  0.17393117     0.15400
H1640       H  0.77478304  0.03613639  0.17754312     0.15900
C1641       C  0.50136143  0.76423451  0.48184764    -0.13700
C1642       C  0.50371167  0.74178019  0.50829983    -0.28800
H1643       H  0.49487862  0.78409375  0.49207945     0.15400
H1644       H  0.98480066  0.78085646  0.49661409     0.15900
C1645       C  0.87979754  0.76621754  0.32944717    -0.13700
C1646       C  0.87873513  0.73413772  0.32944729    -0.28800
H1647       H  0.90513169  0.79110717  0.32725261     0.15400
H1648       H  0.85335564  0.70923114  0.32818676     0.15900
C1649       C  0.63015802  0.76857191  0.31841893    -0.13700
C1650       C  0.62944028  0.73674132  0.31609708    -0.28800
H1651       H  0.65550241  0.79340155  0.32112915     0.15400
H1652       H  0.60429799  0.71212359  0.31118163     0.15900
C1653       C  0.48822030  0.73668100  0.17416822    -0.13700
C1654       C  0.51549019  0.75085664  0.14843861    -0.28800
H1655       H  0.96374097  0.72604017  0.16408445     0.15400
H1656       H  0.54281713  0.76384229  0.15982470     0.15900
C1657       C  0.50307334  0.48864231  0.49343380    -0.13700
C1658       C  0.99310277  0.50813162  0.52037463    -0.28800
H1659       H  0.51017804  0.46947160  0.50570630     0.15400
H1660       H  0.98107912  0.02250630  0.50388560     0.15900
C1661       C  0.98642640  0.87282027  0.31214399    -0.13700
C1662       C  0.52116994  0.87760358  0.30447769    -0.28800
H1663       H  0.96194662  0.84729863  0.30863082     0.15400
H1664       H  0.54599243  0.90312408  0.30495309     0.15900
C1665       C  0.52260396  0.62810298  0.33983177    -0.13700
C1666       C  0.98766370  0.62265677  0.32659325    -0.28800
H1667       H  0.54761951  0.65343273  0.33880492     0.15400
H1668       H  0.96248324  0.59749490  0.32651047     0.15900
C1669       C  0.87571435  0.98256762  0.31994089    -0.13700
C1670       C  0.87900483  0.51520554  0.34044493    -0.28800
H1671       H  0.84993923  0.95812003  0.31825655     0.15400
H1672       H  0.90461107  0.53991299  0.33966411     0.15900
C1673       C  0.63073163  0.51734628  0.32676696    -0.13700
C1674       C  0.62796017  0.98259130  0.34554336    -0.28800
H1675       H  0.65615566  0.54222922  0.32813715     0.15400
H1676       H  0.60298813  0.95747283  0.34208380     0.15900
C1677       C  0.99253669  0.99195554  0.16119861    -0.13700
C1678       C  0.01393915  0.01778398  0.18667358    -0.28800
H1679       H  0.97247112  0.96595167  0.17272085     0.15400
H1680       H  0.53057310  0.54264529  0.17235816     0.15900
loop_ 
_geom_bond_atom_site_label_1 
_geom_bond_atom_site_label_2 
_geom_bond_distance 
_geom_bond_site_symmetry_2 
_ccdc_geom_bond_type 
Zn1          O17   2.020       .  S
Zn1         O426   1.943       .  S
Zn1         O850   1.945       .  S
Zn1         O425   1.925       .  S
Zn2           O7   2.019       .  S
Zn2           O9   2.070       .  S
Zn2          O13   2.063       .  S
Zn2           O5   1.976   1_445  S
Zn3           O8   2.095       .  S
Zn3          O11   2.032       .  S
Zn3          O14   2.084       .  S
Zn3        O1265   1.979       .  S
Zn4          O16   2.033       .  S
Zn4         O432   1.964   1_545  S
Zn4         O855   1.954       .  S
Zn4         O845   1.935   1_545  S
O5         Zn421   1.935   1_655  S
O5        Zn1263   1.971       .  S
O5         Zn844   1.936   1_565  S
O6         Zn421   1.953       .  S
O6           C18   1.265   1_565  A
O7         C1279   1.272       .  A
O8           C20   1.282       .  A
O9           C18   1.280       .  A
O10        Zn841   1.951       .  S
O10          C20   1.264       .  A
O11          C19   1.276       .  A
O12        Zn424   1.956       .  S
O12          C21   1.266       .  A
O13          C22   1.279       .  A
O14          C21   1.282       .  A
O15        Zn844   1.953       .  S
O15          C22   1.264   1_655  A
O16         C863   1.276   1_545  A
O17         C443   1.272       .  A
C18         C413   1.473       .  S
C19        O1267   1.272       .  A
C19         C418   1.479       .  S
C20         C401   1.479       .  S
C21         C409   1.476       .  S
C22         C405   1.471       .  S
C23         O856   1.275   1_565  A
C23         O437   1.272   1_655  A
C23         C397   1.478       .  S
Zn24         O29   1.967       .  S
Zn24         O40   2.023       .  S
Zn24        O873   1.928       .  S
Zn24         O28   1.933       .  S
Zn25         O30   2.031       .  S
Zn25         O32   2.085       .  S
Zn25         O36   2.083       .  S
Zn25         O28   1.972       .  S
Zn26         O31   2.087       .  S
Zn26         O34   2.022       .  S
Zn26         O37   2.061       .  S
Zn26        O868   1.977       .  S
Zn27         O35   1.950       .  S
Zn27         O39   2.049       .  S
Zn27        O878   1.964       .  S
Zn27        O868   1.944       .  S
O28        Zn866   1.979   1_455  S
O28        Zn867   1.938   1_455  S
O29          C41   1.267       .  A
O30          C42   1.275   1_455  A
O31          C43   1.281       .  A
O32          C41   1.282       .  A
O33        Zn864   1.930       .  S
O33          C43   1.261       .  A
O34         C882   1.273       .  A
O35          C44   1.265       .  A
O36          C45   1.282       .  A
O37          C44   1.280       .  A
O38        Zn867   1.940   1_455  S
O38          C45   1.266       .  A
O39         C886   1.276       .  A
O40          C46   1.273       .  A
C41         C389   1.478       .  S
C42         O874   1.273       .  A
C42         C393   1.479       .  S
C43         C406   1.474       .  S
C44         C386   1.468       .  S
C45         C402   1.472       .  S
C46         O879   1.275   1_455  A
C46         C381   1.482       .  S
Zn47         O52   2.022       .  S
Zn47         O56   2.085       .  S
Zn47         O63   2.077       .  S
Zn47        O471   1.964   1_545  S
Zn48         O53   2.060       .  S
Zn48         O55   2.012       .  S
Zn48         O59   2.074       .  S
Zn48         O51   1.976       .  S
Zn49         O57   1.954       .  S
Zn49         O60   2.044       .  S
Zn49        O474   1.973       .  S
Zn49         O51   1.942       .  S
Zn50         O58   2.031       .  S
Zn50         O62   1.971       .  S
Zn50        O481   1.944       .  S
Zn50        O471   1.938   1_545  S
O51        Zn467   1.968       .  S
O51        Zn470   1.922       .  S
O52         C484   1.275   1_545  A
O53          C65   1.279       .  A
O54        Zn469   1.950       .  S
O54          C66   1.266   1_565  A
O55          C64   1.271       .  A
O56          C66   1.282       .  A
O57          C65   1.265       .  A
O58         C487   1.276   1_545  A
O59          C68   1.280       .  A
O60          C67   1.276       .  A
O61        Zn470   1.942       .  S
O61          C68   1.262       .  A
O62          C69   1.268       .  A
O63          C69   1.281       .  A
C64         O472   1.275       .  A
C64         C377   1.475       .  S
C65         C370   1.471       .  S
C66         C410   1.475       .  S
C67         O478   1.268       .  A
C67         C365   1.472       .  S
C68         C414   1.472       .  S
C69         C373   1.476       .  S
Zn70         O75   1.952       .  S
Zn70         O79   1.943       .  S
Zn70         O86   2.011       .  S
Zn70         O74   1.931       .  S
Zn71         O76   2.031       .  S
Zn71         O78   2.099       .  S
Zn71         O82   2.100       .  S
Zn71         O74   1.967       .  S
Zn72         O77   2.076       .  S
Zn72         O80   2.024       .  S
Zn72         O83   2.086       .  S
Zn72         O74   1.982       .  S
Zn73         O81   1.913       .  S
Zn73         O84   1.939       .  S
Zn73         O85   1.990       .  S
Zn73         O74   1.921       .  S
O75          C87   1.266       .  A
O76          C88   1.277       .  A
O77          C89   1.281       .  A
O78          C87   1.284       .  A
O79          C89   1.263       .  A
O80          C88   1.274       .  A
O81          C90   1.259       .  A
O82          C91   1.284       .  A
O83          C90   1.280       .  A
O84          C91   1.264       .  A
O85          C92   1.267       .  A
O86          C92   1.273       .  A
C87         C390   1.479       .  S
C88         C361   1.480       .  S
C89         C369   1.473       .  S
C90         C385   1.472       .  S
C91         C374   1.478       .  S
C92         C357   1.468       .  S
Zn93         O98   2.035       .  S
Zn93        O102   1.955   1_455  S
Zn93        O109   1.966       .  S
Zn93       O1357   1.942       .  S
Zn94         O99   1.954       .  S
Zn94        O101   2.002       .  S
Zn94        O105   1.938       .  S
Zn94         O97   1.926       .  S
Zn95        O103   2.080       .  S
Zn95        O106   2.019       .  S
Zn95        O520   2.063       .  S
Zn95         O97   1.959   1_556  S
Zn96        O104   2.012       .  S
Zn96        O108   2.054       .  S
Zn96        O527   2.059   1_545  S
Zn96       O1357   1.964   1_556  S
O97       Zn1353   1.942       .  S
O97       Zn1356   1.968   1_554  S
O98        C1370   1.275   1_445  A
O99         C111   1.265   1_554  A
O100       Zn515   2.064       .  S
O100        C112   1.280   1_556  A
O101        C110   1.270       .  A
O102        C952   1.267       .  A
O103        C111   1.281       .  A
O104       C1373   1.271       .  A
O105        C954   1.263       .  A
O106        C113   1.274       .  A
O107       Zn516   2.073       .  S
O107        C114   1.282   1_556  A
O108        C115   1.279   1_556  A
O109        C115   1.266       .  A
C110       O1358   1.277       .  A
C110        C417   1.477       .  S
C111        C337   1.475       .  S
C112        O942   1.267       .  A
C112        C350   1.477   1_554  S
C113       O1364   1.272       .  A
C113        C353   1.481       .  S
C114        O945   1.269       .  A
C114        C345   1.480   1_554  S
C115        C341   1.470       .  S
Zn116       O121   2.066       .  S
Zn116       O125   2.013       .  S
Zn116       O132   2.068       .  S
Zn116       O960   1.964       .  S
Zn117       O122   1.947       .  S
Zn117       O124   1.957       .  S
Zn117       O128   2.012       .  S
Zn117       O120   1.936   1_556  S
Zn118       O123   2.020       .  S
Zn118       O126   2.056       .  S
Zn118       O129   2.070       .  S
Zn118       O120   1.965       .  S
Zn119       O127   1.948       .  S
Zn119       O130   1.988       .  S
Zn119       O131   1.930       .  S
Zn119       O960   1.925   1_556  S
O120       Zn956   1.961       .  S
O120       Zn959   1.921   1_554  S
O121        C133   1.281   1_554  A
O122        C134   1.265   1_556  A
O123        C135   1.273       .  A
O124        C973   1.267   1_556  A
O125        C975   1.271       .  A
O126        C134   1.279       .  A
O127        C976   1.266   1_456  A
O128        C137   1.272       .  A
O129        C136   1.280       .  A
O130        C977   1.267       .  A
O131        C138   1.262   1_556  A
O132        C138   1.280       .  A
C133        O964   1.266   1_455  A
C133        C349   1.476   1_556  S
C134        C325   1.470       .  S
C135        O965   1.273       .  A
C135       C1234   1.481       .  S
C136        O967   1.263   1_554  A
C136        C346   1.473       .  S
C137        O970   1.266       .  A
C137       C1174   1.465       .  S
C138        C329   1.474       .  S
Zn139       O144   1.944       .  S
Zn139       O148   2.028       .  S
Zn139       O155   1.957       .  S
Zn139       O563   1.937       .  S
Zn140       O147   2.057       .  S
Zn140       O151   2.018       .  S
Zn140       O565   2.069       .  S
Zn140       O563   1.971   1_556  S
Zn141       O146   2.001       .  S
Zn141       O149   1.960       .  S
Zn141       O152   1.928       .  S
Zn141       O143   1.923       .  S
Zn142       O150   2.069       .  S
Zn142       O153   2.022       .  S
Zn142       O574   2.066   1_545  S
Zn142       O143   1.968   1_556  S
O143       Zn559   1.943   1_545  S
O143       Zn560   1.964   1_554  S
O144        C156   1.264       .  A
O145       Zn560   2.067       .  S
O145        C157   1.279       .  A
O146        C158   1.270       .  A
O147        C156   1.279   1_556  A
O148        C578   1.274       .  A
O149        C157   1.266   1_554  A
O150        C159   1.280   1_556  A
O151        C580   1.271       .  A
O152        C159   1.262       .  A
O153        C160   1.272       .  A
O154       Zn562   2.080       .  S
O154        C161   1.283   1_556  A
O155        C161   1.267       .  A
C156        C330   1.472       .  S
C157        C318   1.472       .  S
C158        O568   1.276   1_545  A
C158        C378   1.475       .  S
C159        C326   1.474       .  S
C160        O571   1.274       .  A
C160        C321   1.480       .  S
C161        C314   1.473   1_554  S
Zn162       O167   2.033       .  S
Zn162       O171   2.085       .  S
Zn162       O178   2.075       .  S
Zn162       O166   1.975       .  S
Zn163       O168   2.094       .  S
Zn163       O170   2.038       .  S
Zn163       O174   2.075       .  S
Zn163       O166   1.983       .  S
Zn164       O169   1.940       .  S
Zn164       O172   1.922       .  S
Zn164       O175   1.996       .  S
Zn164       O166   1.923   1_554  S
Zn165       O173   2.044       .  S
Zn165       O176   1.955       .  S
Zn165       O177   1.960       .  S
Zn165       O166   1.945   1_554  S
O167        C179   1.276       .  A
O168        C180   1.282       .  A
O169        C181   1.264   1_554  A
O170        C179   1.275       .  A
O171        C181   1.281       .  A
O172        C180   1.261   1_554  A
O173        C182   1.275       .  A
O174        C183   1.281   1_556  A
O175        C182   1.268       .  A
O176        C183   1.265       .  A
O177        C184   1.268   1_554  A
O178        C184   1.281       .  A
C179        C309   1.483       .  S
C180        C342   1.476       .  S
C181        C317   1.473       .  S
C182        C362   1.477       .  S
C183        C313   1.474   1_554  S
C184        C338   1.472       .  S
Zn185       O190   1.955       .  S
Zn185       O194   1.941       .  S
Zn185       O201   1.993       .  S
Zn185       O609   1.929       .  S
Zn186       O191   2.018       .  S
Zn186       O193   2.081       .  S
Zn186      O1037   2.076       .  S
Zn186       O609   1.961       .  S
Zn187       O195   2.013       .  S
Zn187       O198   2.061   1_655  S
Zn187      O1032   2.065       .  S
Zn187      O1029   1.966   1_545  S
Zn188       O196   1.958       .  S
Zn188       O199   1.956       .  S
Zn188       O200   2.031       .  S
Zn188      O1029   1.938   1_445  S
O189       Zn605   1.936   1_545  S
O189       Zn606   1.969   1_545  S
O189      Zn1027   1.969       .  S
O189      Zn1028   1.935       .  S
O190        C202   1.266       .  A
O191        C623   1.273       .  A
O192      Zn1027   2.083       .  S
O192        C204   1.282       .  A
O193        C202   1.282       .  A
O194        C624   1.262       .  A
O195       C1043   1.271       .  A
O196        C205   1.266       .  A
O197      Zn1026   2.100   1_455  S
O197        C206   1.283       .  A
O198        C205   1.280       .  A
O199        C626   1.266   1_545  A
O200       C1047   1.275   1_445  A
O201        C627   1.269       .  A
C202        C293   1.482       .  S
C203        O611   1.275   1_545  A
C203       O1035   1.273       .  A
C203        C398   1.482       .  S
C204        O614   1.264   1_545  A
C204        C301   1.476       .  S
C205        C297   1.475       .  S
C206        O619   1.262       .  A
C206        C305   1.479       .  S
C207       O1040   1.272       .  A
C207        O621   1.271   1_545  A
C207        C354   1.474       .  S
Zn208       O213   2.084   1_655  S
Zn208       O224   2.025       .  S
Zn208      O1057   2.072       .  S
Zn208       O212   1.970       .  S
Zn209       O214   1.994       .  S
Zn209       O216   1.930       .  S
Zn209       O220   1.938       .  S
Zn209       O212   1.930   1_455  S
Zn210       O215   1.936       .  S
Zn210       O218   1.997       .  S
Zn210       O221   1.927       .  S
Zn210      O1052   1.922       .  S
Zn211       O219   2.107       .  S
Zn211       O223   2.038       .  S
Zn211      O1062   2.080       .  S
Zn211      O1052   1.960       .  S
O212      Zn1050   1.925       .  S
O212      Zn1051   1.971       .  S
O213        C225   1.282       .  A
O214        C226   1.270   1_455  A
O215        C227   1.264       .  A
O216        C225   1.262       .  A
O217      Zn1048   2.073       .  S
O217        C227   1.281       .  A
O218       C1066   1.267       .  A
O219        C228   1.284       .  A
O220        C229   1.263       .  A
O221        C228   1.261       .  A
O222      Zn1051   2.075   1_455  S
O222        C229   1.282       .  A
O223       C1070   1.277       .  A
O224        C230   1.273       .  A
C225        C282   1.472       .  S
C226       O1058   1.266       .  A
C226        C333   1.463       .  S
C227        C285   1.477       .  S
C228        C277   1.479       .  S
C229        C290   1.475       .  S
C230       O1063   1.276       .  A
C230        C382   1.481       .  S
Zn231       O236   2.078       .  S
Zn231       O240   2.085       .  S
Zn231       O247   2.012       .  S
Zn231       O235   1.978   1_545  S
Zn232       O237   2.038       .  S
Zn232       O239   1.963       .  S
Zn232       O243   1.947       .  S
Zn232       O235   1.940   1_545  S
Zn233       O238   1.984       .  S
Zn233       O241   2.055       .  S
Zn233       O244   1.959       .  S
Zn233       O655   1.946       .  S
Zn234       O242   2.065       .  S
Zn234       O245   2.075       .  S
Zn234       O246   2.020       .  S
Zn234       O655   1.978       .  S
O235       Zn653   1.928       .  S
O235       Zn654   1.974       .  S
O236        C248   1.281       .  A
O237        C249   1.275   1_545  A
O238        C670   1.270       .  A
O239        C248   1.266       .  A
O240        C250   1.281       .  A
O241        C669   1.278       .  A
O242        C251   1.281       .  A
O243        C672   1.265   1_545  A
O244        C251   1.267       .  A
O245        C252   1.280       .  A
O246        C673   1.272       .  A
O247        C253   1.271       .  A
C248        C278   1.476       .  S
C249        O661   1.270       .  A
C249        C322   1.477       .  S
C250        O658   1.262   1_545  A
C250        C306   1.474       .  S
C251        C281   1.471       .  S
C252        O663   1.261       .  A
C252        C302   1.472       .  S
C253        O666   1.276   1_545  A
C253        C366   1.478       .  S
Zn254       O259   2.049       .  S
Zn254       O263   2.090       .  S
Zn254       O270   2.082       .  S
Zn254       O258   1.964       .  S
Zn255       O260   2.074       .  S
Zn255       O262   2.011       .  S
Zn255       O266   2.060       .  S
Zn255       O258   1.961       .  S
Zn256       O261   1.922       .  S
Zn256       O264   1.944       .  S
Zn256       O267   1.983       .  S
Zn256       O258   1.925       .  S
Zn257       O265   2.019       .  S
Zn257       O268   1.954       .  S
Zn257       O269   1.960       .  S
Zn257       O258   1.942       .  S
O259        C271   1.275       .  A
O260        C272   1.281       .  A
O261        C273   1.262       .  A
O262        C271   1.270       .  A
O263        C273   1.283       .  A
O264        C272   1.264       .  A
O265        C274   1.273       .  A
O266        C275   1.280       .  A
O267        C274   1.266       .  A
O268        C275   1.265       .  A
O269        C276   1.268       .  A
O270        C276   1.284       .  A
C271        C310   1.480       .  S
C272        C298   1.478       .  S
C273        C289   1.478       .  S
C274        C358   1.465       .  S
C275        C286   1.474       .  S
C276        C294   1.482       .  S
C277        C278   1.362       .  D
C277        H279   1.086       .  S
C278        H280   1.086       .  S
C281        C282   1.359       .  D
C281        H283   1.087       .  S
C282        H284   1.085       .  S
C285        C286   1.362       .  D
C285        H287   1.086       .  S
C286        H288   1.087       .  S
C289        C290   1.365       .  D
C289        H291   1.087       .  S
C290        H292   1.087       .  S
C293        C294   1.364       .  D
C293        H295   1.087       .  S
C294        H296   1.087       .  S
C297        C298   1.361       .  D
C297        H299   1.086       .  S
C298        H300   1.086       .  S
C301        C722   1.360   1_545  D
C301        H303   1.086       .  S
C302        C721   1.359       .  D
C302        H304   1.087       .  S
C305        C726   1.359       .  D
C305        H307   1.084       .  S
C306        C725   1.360   1_545  D
C306        H308   1.086       .  S
C309        C310   1.344       .  D
C309        H311   1.087       .  S
C310        H312   1.087       .  S
C313        C314   1.358       .  D
C313        H315   1.087   1_556  S
C314        H316   1.086       .  S
C317        C318   1.357       .  D
C317        H319   1.087       .  S
C318        H320   1.087       .  S
C321        C322   1.344   1_545  D
C321        H743   1.086       .  S
C322        H324   1.086       .  S
H323        C741   1.087       .  S
C325        C326   1.360       .  D
C325        H327   1.087       .  S
C326        H328   1.087   1_554  S
C329        C330   1.361       .  D
C329        H331   1.087       .  S
C330        H332   1.087   1_554  S
C333        C334   1.338   1_655  D
C333       H1175   1.087       .  S
C334        C977   1.462       .  S
C334        H336   1.087       .  S
H335       C1173   1.087       .  S
C337        C338   1.357       .  D
C337        H339   1.086       .  S
C338        H340   1.087       .  S
C341        C342   1.359   1_554  D
C341        H343   1.087   1_554  S
C342        H344   1.087       .  S
C345       C1186   1.363   1_456  D
C345       H1187   1.087       .  S
C346       C1185   1.360       .  D
C346       H1188   1.086       .  S
H347       C1185   1.087       .  S
H348       C1186   1.087       .  S
C349       C1190   1.361   1_454  D
C349        H351   1.086       .  S
C350       C1189   1.361   1_556  D
C350        H352   1.086       .  S
C353        C774   1.343       .  D
C353       H1615   1.086       .  S
C354        C773   1.345       .  D
C354        H776   1.086   1_545  S
H355       C1613   1.086       .  S
H356        C774   1.087       .  S
C357        C358   1.337       .  D
C357        H359   1.087       .  S
C358        H360   1.087       .  S
C361        C362   1.343       .  D
C361        H363   1.087       .  S
C362        H364   1.087       .  S
C365        C786   1.342       .  D
C365        H787   1.086       .  S
C366        C785   1.343   1_545  D
C366        H788   1.088       .  S
H367        C785   1.088       .  S
H368        C786   1.086       .  S
C369        C370   1.358       .  D
C369        H371   1.086       .  S
C370        H372   1.087       .  S
C373        C374   1.360       .  D
C373        H375   1.086       .  S
C374        H376   1.086       .  S
C377        C798   1.341       .  D
C377        H799   1.087       .  S
C378        C797   1.342   1_545  D
C378        H800   1.087       .  S
H379        C797   1.086       .  S
H380        C798   1.087       .  S
C381        C382   1.345   1_455  D
C381        H383   1.087       .  S
C382       H1224   1.087       .  S
H384       C1222   1.088       .  S
C385        C386   1.359       .  D
C385        H387   1.086       .  S
C386        H388   1.087       .  S
C389        C390   1.360       .  D
C389        H391   1.086       .  S
C390        H392   1.086       .  S
C393        C394   1.343   1_655  D
C393       H1235   1.087       .  S
C394        C975   1.478       .  S
C394        H396   1.087       .  S
H395       C1233   1.087       .  S
C397       C1238   1.344   1_565  D
C397        H399   1.088       .  S
C398       C1237   1.346   1_545  D
C398        H820   1.087       .  S
H400        C818   1.087       .  S
C401       C1242   1.360       .  D
C401        H403   1.086       .  S
C402       C1241   1.360   1_455  D
C402        H404   1.086       .  S
C405       C1246   1.360   1_455  D
C405        H407   1.087       .  S
C406       C1245   1.359       .  D
C406        H408   1.086       .  S
C409        C830   1.358       .  D
C409        H411   1.086       .  S
C410        C829   1.359   1_545  D
C410        H412   1.086       .  S
C413        C834   1.360   1_545  D
C413        H415   1.087       .  S
C414        C833   1.359       .  D
C414        H416   1.086       .  S
C417        C418   1.343       .  D
C417        H419   1.087       .  S
C418       H1680   1.087       .  S
H420       C1678   1.087       .  S
Zn421      O1270   1.949       .  S
Zn421       O437   2.019       .  S
Zn422       O427   2.029       .  S
Zn422       O429   2.074       .  S
Zn422       O433   2.078       .  S
Zn422       O425   1.966       .  S
Zn423       O428   2.072       .  S
Zn423       O431   2.008       .  S
Zn423       O434   2.073       .  S
Zn423       O845   1.965       .  S
Zn424      O1275   1.955       .  S
Zn424       O436   2.030       .  S
Zn424      O1265   1.941       .  S
O425       Zn843   1.978   1_455  S
O425      Zn1264   1.937   1_455  S
O426        C438   1.265       .  A
O427        C859   1.275   1_455  A
O428        C440   1.280       .  A
O429        C438   1.281       .  A
O430      Zn1261   1.960       .  S
O430        C440   1.266       .  A
O431        C439   1.273   1_565  A
O432        C441   1.267       .  A
O433        C442   1.281       .  A
O434        C441   1.281       .  A
O435      Zn1264   1.964   1_455  S
O435        C442   1.267       .  A
O436       C1283   1.275       .  A
C438        C833   1.471       .  S
C439        O847   1.273       .  A
C439        C838   1.478       .  S
C440        C821   1.473       .  S
C441        C829   1.474       .  S
C442        C825   1.475       .  S
C443       O1276   1.275   1_455  A
C443        C817   1.482       .  S
Zn444       O449   1.946       .  S
Zn444      O1293   1.949       .  S
Zn444       O460   2.016       .  S
Zn444       O448   1.931       .  S
Zn445       O450   2.022       .  S
Zn445       O452   2.077       .  S
Zn445       O456   2.085       .  S
Zn445       O448   1.970       .  S
Zn446       O451   2.077       .  S
Zn446       O454   2.020       .  S
Zn446       O457   2.072       .  S
Zn446      O1288   1.977       .  S
Zn447       O455   1.936       .  S
Zn447      O1298   1.918       .  S
Zn447       O459   1.994       .  S
Zn447      O1288   1.922       .  S
O448      Zn1286   1.980   1_455  S
O448      Zn1287   1.938   1_455  S
O449        C461   1.265       .  A
O450        C462   1.274   1_455  A
O451        C463   1.282       .  A
O452        C461   1.281       .  A
O453      Zn1284   1.958       .  S
O453        C463   1.265       .  A
O454       C1302   1.272       .  A
O455        C464   1.261       .  A
O456        C465   1.282       .  A
O457        C464   1.279       .  A
O458      Zn1287   1.956   1_455  S
O458        C465   1.266       .  A
O459       C1306   1.269       .  A
O460        C466   1.272       .  A
C461        C809   1.472       .  S
C462       O1294   1.273       .  A
C462        C813   1.478       .  S
C463        C826   1.475       .  S
C464        C806   1.470       .  S
C465        C822   1.475       .  S
C466       O1299   1.274   1_455  A
C466        C801   1.478       .  S
Zn467       O472   2.018       .  S
Zn467       O476   2.074       .  S
Zn467       O483   2.083       .  S
Zn468       O473   2.070       .  S
Zn468       O475   2.017       .  S
Zn468       O479   2.082       .  S
Zn468       O471   1.978       .  S
Zn469       O477   1.951       .  S
Zn469       O480   2.014       .  S
Zn469       O471   1.929       .  S
Zn470       O478   1.986       .  S
Zn470       O482   1.928       .  S
O473        C485   1.279       .  A
O474        C486   1.269       .  A
O475        C484   1.272       .  A
O476        C486   1.281       .  A
O477        C485   1.263       .  A
O479        C488   1.282       .  A
O480        C487   1.272       .  A
O481        C488   1.263   1_545  A
O482        C489   1.262       .  A
O483        C489   1.281       .  A
C484        C797   1.477       .  S
C485        C790   1.472       .  S
C486        C830   1.475       .  S
C487        C785   1.478       .  S
C488        C834   1.475       .  S
C489        C793   1.472       .  S
Zn490       O495   1.942       .  S
Zn490       O499   1.934       .  S
Zn490       O506   2.005       .  S
Zn490       O494   1.924       .  S
Zn491       O496   2.007       .  S
Zn491       O498   2.082       .  S
Zn491       O502   2.074       .  S
Zn491       O494   1.973       .  S
Zn492       O497   2.087       .  S
Zn492       O500   2.030       .  S
Zn492       O503   2.088       .  S
Zn492       O494   1.971       .  S
Zn493       O501   1.918       .  S
Zn493       O504   1.942       .  S
Zn493       O505   2.002       .  S
Zn493       O494   1.924       .  S
O495        C507   1.263       .  A
O496        C508   1.271       .  A
O497        C509   1.282       .  A
O498        C507   1.281       .  A
O499        C509   1.264       .  A
O500        C508   1.277       .  A
O501        C510   1.261       .  A
O502        C511   1.281       .  A
O503        C510   1.281       .  A
O504        C511   1.263       .  A
O505        C512   1.269       .  A
O506        C512   1.271       .  A
C507        C810   1.474       .  S
C508        C781   1.477       .  S
C509        C789   1.473       .  S
C510        C805   1.472       .  S
C511        C794   1.471       .  S
C512        C777   1.467       .  S
Zn513       O518   2.006       .  S
Zn513       O522   1.942       .  S
Zn513       O529   1.960       .  S
Zn513       O937   1.926       .  S
Zn514       O519   1.953       .  S
Zn514       O521   2.007       .  S
Zn514       O525   1.953       .  S
Zn514       O517   1.931   1_565  S
Zn515       O523   2.072   1_545  S
Zn515       O526   2.008       .  S
Zn515       O517   1.970   1_556  S
Zn516       O524   2.016       .  S
Zn516       O528   2.099       .  S
Zn516       O937   1.957   1_556  S
O517       Zn933   1.938       .  S
O517       Zn936   1.963   1_554  S
O518        C950   1.271       .  A
O519        C531   1.264   1_554  A
O520        C532   1.281       .  A
O521        C530   1.271       .  A
O522       C1372   1.264   1_455  A
O523        C531   1.280       .  A
O524        C953   1.274   1_455  A
O525       C1374   1.265       .  A
O526        C533   1.272       .  A
O527        C534   1.279   1_556  A
O528        C535   1.283       .  A
O529        C535   1.265   1_554  A
C530        O938   1.275   1_565  A
C530        C837   1.474       .  S
C531        C757   1.473       .  S
C532       O1362   1.270   1_556  A
C532        C770   1.476       .  S
C533        O944   1.272       .  A
C533        C773   1.475       .  S
C534       O1365   1.264   1_455  A
C534        C765   1.473   1_554  S
C535        C761   1.482       .  S
Zn536       O541   2.064       .  S
Zn536       O545   2.018       .  S
Zn536       O552   2.067       .  S
Zn536      O1380   1.966   1_554  S
Zn537       O542   1.954       .  S
Zn537       O544   1.962       .  S
Zn537       O548   2.013       .  S
Zn537       O540   1.942       .  S
Zn538       O543   2.044       .  S
Zn538       O546   2.076       .  S
Zn538       O549   2.082       .  S
Zn538       O540   1.960   1_554  S
Zn539       O547   1.950       .  S
Zn539       O550   2.000       .  S
Zn539       O551   1.933       .  S
Zn539      O1380   1.926       .  S
O540      Zn1376   1.964   1_556  S
O540      Zn1379   1.927       .  S
O541        C553   1.281       .  A
O542        C554   1.266       .  A
O543        C555   1.275       .  A
O544       C1393   1.267       .  A
O545       C1395   1.271       .  A
O546        C554   1.283   1_554  A
O547       C1396   1.267   1_456  A
O548        C557   1.272       .  A
O549        C556   1.283       .  A
O550       C1397   1.269       .  A
O551        C558   1.262   1_556  A
O552        C558   1.280       .  A
C553       O1384   1.266   1_554  A
C553        C769   1.475       .  S
C554        C745   1.478   1_556  S
C555       O1385   1.270       .  A
C555       C1654   1.478       .  S
C556       O1387   1.266   1_554  A
C556        C766   1.480       .  S
C557       O1390   1.268       .  A
C557       C1594   1.468       .  S
C558        C749   1.475       .  S
Zn559       O564   1.952       .  S
Zn559       O568   2.038       .  S
Zn559       O575   1.975       .  S
Zn560       O567   2.053   1_545  S
Zn560       O571   2.021       .  S
Zn561       O566   1.993       .  S
Zn561       O569   1.944       .  S
Zn561       O572   1.939       .  S
Zn561       O563   1.927       .  S
Zn562       O570   2.081       .  S
Zn562       O573   2.040       .  S
Zn562       O563   1.963   1_556  S
O564        C576   1.266   1_554  A
O565        C577   1.280   1_556  A
O566        C578   1.268       .  A
O567        C576   1.279       .  A
O569        C577   1.263       .  A
O570        C579   1.281       .  A
O572        C579   1.264   1_554  A
O573        C580   1.276       .  A
O574        C581   1.280       .  A
O575        C581   1.268   1_554  A
C576        C750   1.470       .  S
C577        C738   1.470   1_554  S
C578        C798   1.472       .  S
C579        C746   1.479       .  S
C580        C741   1.482       .  S
C581        C734   1.474       .  S
Zn582       O587   2.026       .  S
Zn582       O591   2.073       .  S
Zn582       O598   2.094       .  S
Zn582       O586   1.978       .  S
Zn583       O588   2.104       .  S
Zn583       O590   2.044       .  S
Zn583       O594   2.108       .  S
Zn583       O586   1.979       .  S
Zn584       O589   1.941       .  S
Zn584       O592   1.957       .  S
Zn584       O595   2.037       .  S
Zn584       O586   1.939   1_554  S
Zn585       O593   1.988       .  S
Zn585       O596   1.924       .  S
Zn585       O597   1.924       .  S
Zn585       O586   1.920   1_554  S
O587        C599   1.274       .  A
O588        C600   1.284       .  A
O589        C601   1.265   1_554  A
O590        C599   1.277       .  A
O591        C601   1.281       .  A
O592        C600   1.265   1_554  A
O593        C602   1.267       .  A
O594        C603   1.285       .  A
O595        C602   1.275       .  A
O596        C603   1.262   1_554  A
O597        C604   1.260   1_554  A
O598        C604   1.281       .  A
C599        C729   1.482       .  S
C600        C762   1.482       .  S
C601        C737   1.471       .  S
C602        C782   1.474       .  S
C603        C733   1.479       .  S
C604        C758   1.475       .  S
Zn605       O610   1.950       .  S
Zn605       O614   1.954       .  S
Zn605       O621   2.015       .  S
Zn606       O611   2.039       .  S
Zn606       O613   2.059       .  S
Zn606      O1457   2.081       .  S
Zn607      O1452   2.075       .  S
Zn607       O615   2.028       .  S
Zn607       O618   2.075   1_655  S
Zn607      O1449   1.970       .  S
Zn608       O616   1.937       .  S
Zn608       O619   1.931       .  S
Zn608       O620   1.990       .  S
Zn608      O1449   1.925   1_455  S
O609      Zn1447   1.972       .  S
O609      Zn1448   1.945       .  S
O610        C622   1.266       .  A
O612      Zn1447   2.067       .  S
O612        C624   1.280       .  A
O613        C622   1.279       .  A
O615       C1463   1.273       .  A
O616        C625   1.263       .  A
O617      Zn1446   2.069   1_455  S
O617        C626   1.281       .  A
O618        C625   1.281       .  A
O620       C1467   1.268       .  A
C622        C713   1.473       .  S
C623       O1455   1.273       .  A
C623        C818   1.480       .  S
C624        C721   1.471       .  S
C625        C717   1.475       .  S
C626        C725   1.471       .  S
C627       O1460   1.276       .  A
C627        C774   1.476       .  S
Zn628       O633   2.080   1_655  S
Zn628      O1477   2.069       .  S
Zn628       O644   2.027       .  S
Zn628       O632   1.965       .  S
Zn629       O634   2.014       .  S
Zn629       O636   1.951       .  S
Zn629       O640   1.942       .  S
Zn629       O632   1.930   1_455  S
Zn630       O635   1.943       .  S
Zn630       O638   2.008       .  S
Zn630       O641   1.954       .  S
Zn630      O1472   1.923       .  S
Zn631       O639   2.074       .  S
Zn631      O1482   2.051       .  S
Zn631       O643   2.012       .  S
Zn631      O1472   1.966       .  S
O632      Zn1470   1.929       .  S
O632      Zn1471   1.967       .  S
O633        C645   1.281       .  A
O634        C646   1.273   1_455  A
O635        C647   1.267       .  A
O636        C645   1.264       .  A
O637      Zn1468   2.081       .  S
O637        C647   1.283       .  A
O638       C1486   1.269       .  A
O639        C648   1.280       .  A
O640        C649   1.265       .  A
O641        C648   1.264       .  A
O642      Zn1471   2.065   1_455  S
O642        C649   1.280       .  A
O643       C1490   1.271       .  A
O644        C650   1.273       .  A
C645        C702   1.475       .  S
C646       O1478   1.270       .  A
C646        C753   1.472       .  S
C647        C705   1.477       .  S
C648        C697   1.473       .  S
C649        C710   1.473       .  S
C650       O1483   1.274       .  A
C650        C802   1.479       .  S
Zn651       O656   2.070       .  S
Zn651       O660   2.064       .  S
Zn651       O667   2.014       .  S
Zn651       O655   1.962       .  S
Zn652       O657   2.002       .  S
Zn652       O659   1.945       .  S
Zn652       O663   1.932       .  S
Zn652       O655   1.915       .  S
Zn653       O658   1.937       .  S
Zn653       O661   2.004       .  S
Zn653       O664   1.943       .  S
Zn654       O662   2.089       .  S
Zn654       O665   2.082       .  S
Zn654       O666   2.034       .  S
O656        C668   1.279       .  A
O657        C669   1.270       .  A
O659        C668   1.265       .  A
O660        C670   1.279       .  A
O662        C671   1.282       .  A
O664        C671   1.264       .  A
O665        C672   1.282       .  A
O667        C673   1.274       .  A
C668        C698   1.471       .  S
C669        C742   1.480       .  S
C670        C726   1.473       .  S
C671        C701   1.476       .  S
C672        C722   1.475       .  S
C673        C786   1.478       .  S
Zn674       O679   2.019       .  S
Zn674       O683   2.072       .  S
Zn674       O690   2.063       .  S
Zn674       O678   1.964       .  S
Zn675       O680   2.071       .  S
Zn675       O682   2.041       .  S
Zn675       O686   2.069       .  S
Zn675       O678   1.960       .  S
Zn676       O681   1.932       .  S
Zn676       O684   1.940       .  S
Zn676       O687   1.994       .  S
Zn676       O678   1.926       .  S
Zn677       O685   2.007       .  S
Zn677       O688   1.952       .  S
Zn677       O689   1.950       .  S
Zn677       O678   1.937       .  S
O679        C691   1.271       .  A
O680        C692   1.281       .  A
O681        C693   1.262       .  A
O682        C691   1.275       .  A
O683        C693   1.281       .  A
O684        C692   1.265       .  A
O685        C694   1.271       .  A
O686        C695   1.281       .  A
O687        C694   1.268       .  A
O688        C695   1.265       .  A
O689        C696   1.266       .  A
O690        C696   1.281       .  A
C691        C730   1.481       .  S
C692        C718   1.474       .  S
C693        C709   1.475       .  S
C694        C778   1.466       .  S
C695        C706   1.475       .  S
C696        C714   1.475       .  S
C697        C698   1.357       .  D
C697        H699   1.087       .  S
C698        H700   1.086       .  S
C701        C702   1.360       .  D
C701        H703   1.087       .  S
C702        H704   1.086       .  S
C705        C706   1.361       .  D
C705        H707   1.086       .  S
C706        H708   1.086       .  S
C709        C710   1.362       .  D
C709        H711   1.087       .  S
C710        H712   1.086       .  S
C713        C714   1.360       .  D
C713        H715   1.087       .  S
C714        H716   1.087       .  S
C717        C718   1.362       .  D
C717        H719   1.087       .  S
C718        H720   1.086       .  S
C721        H723   1.087       .  S
C722        H724   1.087       .  S
C725        H727   1.086       .  S
C726        H728   1.087       .  S
C729        C730   1.344       .  D
C729        H731   1.087       .  S
C730        H732   1.087       .  S
C733        C734   1.361       .  D
C733        H735   1.086       .  S
C734        H736   1.087       .  S
C737        C738   1.359       .  D
C737        H739   1.087       .  S
C738        H740   1.086       .  S
C741        C742   1.342       .  D
C742        H744   1.088       .  S
C745        C746   1.363   1_554  D
C745        H747   1.087       .  S
C746        H748   1.087       .  S
C749        C750   1.360   1_554  D
C749        H751   1.086       .  S
C750        H752   1.086       .  S
C753        C754   1.341   1_655  D
C753       H1595   1.087       .  S
C754       C1397   1.471       .  S
C754        H756   1.087       .  S
H755       C1593   1.087       .  S
C757        C758   1.360       .  D
C757        H759   1.087       .  S
C758        H760   1.087       .  S
C761        C762   1.363       .  D
C761        H763   1.086       .  S
C762        H764   1.086       .  S
C765       C1606   1.359   1_456  D
C765       H1607   1.087       .  S
C766       C1605   1.363   1_554  D
C766       H1608   1.087       .  S
H767       C1605   1.087       .  S
H768       C1606   1.087       .  S
C769       C1610   1.361   1_455  D
C769        H771   1.086       .  S
C770       C1609   1.360       .  D
C770        H772   1.086       .  S
C773       H1195   1.086       .  S
H775       C1193   1.087       .  S
C777        C778   1.339       .  D
C777        H779   1.088       .  S
C778        H780   1.087       .  S
C781        C782   1.340       .  D
C781        H783   1.087       .  S
C782        H784   1.087       .  S
C789        C790   1.359       .  D
C789        H791   1.086       .  S
C790        H792   1.086       .  S
C793        C794   1.360       .  D
C793        H795   1.086       .  S
C794        H796   1.086       .  S
C801        C802   1.345   1_455  D
C801        H803   1.088       .  S
C802       H1644   1.087       .  S
H804       C1642   1.086       .  S
C805        C806   1.361       .  D
C805        H807   1.086       .  S
C806        H808   1.086       .  S
C809        C810   1.359       .  D
C809        H811   1.086       .  S
C810        H812   1.086       .  S
C813        C814   1.344   1_655  D
C813       H1655   1.087       .  S
C814       C1395   1.477       .  S
C814        H816   1.087       .  S
H815       C1653   1.087       .  S
C817       C1658   1.346   1_455  D
C817        H819   1.087       .  S
C818       C1657   1.346       .  D
C821       C1662   1.361       .  D
C821        H823   1.087       .  S
C822       C1661   1.360   1_455  D
C822        H824   1.086       .  S
C825       C1666   1.359   1_455  D
C825        H827   1.086       .  S
C826       C1665   1.359       .  D
C826        H828   1.087       .  S
C829        H831   1.086       .  S
C830        H832   1.086       .  S
C833        H835   1.086       .  S
C834        H836   1.086       .  S
C837        C838   1.345   1_565  D
C837        H839   1.087       .  S
C838       H1260   1.087       .  S
H840       C1258   1.087       .  S
Zn841      O1266   1.950       .  S
Zn841       O857   2.018       .  S
Zn841      O1265   1.935       .  S
Zn842       O847   2.026       .  S
Zn842       O849   2.069       .  S
Zn842       O853   2.062       .  S
Zn842       O845   1.975   1_545  S
Zn843       O848   2.076       .  S
Zn843       O851   2.015       .  S
Zn843       O854   2.077       .  S
Zn844      O1272   1.953   1_545  S
Zn844       O856   2.027       .  S
O845      Zn1261   1.934       .  S
O846      Zn1261   1.943       .  S
O846        C858   1.264   1_565  A
O848        C860   1.280       .  A
O849        C858   1.280       .  A
O850        C860   1.262   1_455  A
O851        C859   1.271       .  A
O852      Zn1264   1.944       .  S
O852        C861   1.264       .  A
O853        C862   1.279       .  A
O854        C861   1.282       .  A
O855        C862   1.265       .  A
O857       C1283   1.272       .  A
C858       C1253   1.470       .  S
C859       C1258   1.478       .  S
C860       C1241   1.473       .  S
C861       C1249   1.473       .  S
C862       C1245   1.471       .  S
C863       O1277   1.274       .  A
C863       C1237   1.483       .  S
Zn864       O869   1.939       .  S
Zn864       O880   1.999       .  S
Zn864       O868   1.925       .  S
Zn865       O870   2.036       .  S
Zn865       O872   2.074       .  S
Zn865       O876   2.085       .  S
Zn865       O868   1.974       .  S
Zn866       O871   2.086       .  S
Zn866       O874   2.026       .  S
Zn866       O877   2.073       .  S
Zn867       O875   1.964       .  S
Zn867       O879   2.035       .  S
O869        C881   1.264       .  A
O870        C882   1.275       .  A
O871        C883   1.282       .  A
O872        C881   1.281       .  A
O873        C883   1.262   1_455  A
O875        C884   1.265       .  A
O876        C885   1.282       .  A
O877        C884   1.280       .  A
O878        C885   1.267       .  A
O880        C886   1.269       .  A
C881       C1229   1.470       .  S
C882       C1233   1.478       .  S
C883       C1246   1.474       .  S
C884       C1226   1.475       .  S
C885       C1242   1.477       .  S
C886       C1221   1.479       .  S
Zn887       O892   2.024       .  S
Zn887       O896   2.081       .  S
Zn887       O903   2.082       .  S
Zn887      O1311   1.962   1_545  S
Zn888       O893   2.082       .  S
Zn888       O895   2.026       .  S
Zn888       O899   2.086       .  S
Zn888       O891   1.966       .  S
Zn889      O1314   1.953       .  S
Zn889       O897   1.970       .  S
Zn889       O900   2.050       .  S
Zn889       O891   1.944       .  S
Zn890       O898   2.007       .  S
Zn890      O1321   1.940       .  S
Zn890       O902   1.943       .  S
Zn890      O1311   1.928   1_545  S
O891      Zn1307   1.976       .  S
O891      Zn1310   1.916       .  S
O892       C1324   1.275   1_545  A
O893        C905   1.282       .  A
O894      Zn1309   1.950   1_545  S
O894        C906   1.266       .  A
O895        C904   1.276       .  A
O896        C906   1.281       .  A
O897        C905   1.268       .  A
O898       C1327   1.272       .  A
O899        C908   1.282       .  A
O900        C907   1.276       .  A
O901      Zn1310   1.930       .  S
O901        C908   1.263       .  A
O902        C909   1.265       .  A
O903        C909   1.282       .  A
C904       O1312   1.270       .  A
C904       C1217   1.475       .  S
C905       C1210   1.477       .  S
C906       C1250   1.474       .  S
C907       O1318   1.269       .  A
C907       C1205   1.474       .  S
C908       C1254   1.472       .  S
C909       C1213   1.473       .  S
Zn910       O915   1.941       .  S
Zn910       O919   1.957       .  S
Zn910       O926   2.013       .  S
Zn910       O914   1.933       .  S
Zn911       O916   2.008       .  S
Zn911       O918   2.073       .  S
Zn911       O922   2.069       .  S
Zn911       O914   1.978       .  S
Zn912       O917   2.094       .  S
Zn912       O920   2.022       .  S
Zn912       O923   2.095       .  S
Zn912       O914   1.971       .  S
Zn913       O921   1.929       .  S
Zn913       O924   1.953       .  S
Zn913       O925   2.003       .  S
Zn913       O914   1.928       .  S
O915        C927   1.263       .  A
O916        C928   1.271       .  A
O917        C929   1.283       .  A
O918        C927   1.280       .  A
O919        C929   1.266       .  A
O920        C928   1.276       .  A
O921        C930   1.262       .  A
O922        C931   1.279       .  A
O923        C930   1.282       .  A
O924        C931   1.264       .  A
O925        C932   1.270       .  A
O926        C932   1.273       .  A
C927       C1230   1.471       .  S
C928       C1201   1.475       .  S
C929       C1209   1.480       .  S
C930       C1225   1.476       .  S
C931       C1214   1.472       .  S
C932       C1197   1.468       .  S
Zn933       O938   2.030       .  S
Zn933       O942   1.961       .  S
Zn933       O949   1.954       .  S
Zn934       O939   1.975       .  S
Zn934       O941   2.036       .  S
Zn934       O945   1.964   1_655  S
Zn934       O937   1.939   1_655  S
Zn935      O1360   2.069       .  S
Zn935       O943   2.065       .  S
Zn935       O946   2.001       .  S
Zn935       O937   1.970   1_656  S
Zn936       O944   2.022       .  S
Zn936      O1367   2.075   1_545  S
Zn936       O948   2.077       .  S
O939        C951   1.266       .  A
O940      Zn1355   2.063       .  S
O940        C952   1.281   1_556  A
O941        C950   1.277   1_655  A
O943        C951   1.280   1_556  A
O946        C953   1.269       .  A
O947      Zn1356   2.062       .  S
O947        C954   1.281   1_556  A
O948        C955   1.282   1_556  A
O949        C955   1.265       .  A
C950       C1257   1.476       .  S
C951       C1177   1.475       .  S
C952       C1190   1.475   1_554  S
C953       C1193   1.472       .  S
C954       C1185   1.471       .  S
C955       C1181   1.475       .  S
Zn956       O961   2.066       .  S
Zn956       O965   2.035       .  S
Zn956       O972   2.069       .  S
Zn957       O962   1.949       .  S
Zn957       O964   1.952       .  S
Zn957       O968   2.001       .  S
Zn957       O960   1.933   1_656  S
Zn958       O963   2.041       .  S
Zn958       O966   2.090       .  S
Zn958       O969   2.089       .  S
Zn958       O960   1.954   1_655  S
Zn959       O967   1.931       .  S
Zn959       O970   1.985       .  S
Zn959       O971   1.919       .  S
O961        C973   1.281       .  A
O962        C974   1.265   1_556  A
O963        C975   1.275   1_655  A
O966        C974   1.284       .  A
O968        C977   1.271   1_655  A
O969        C976   1.284       .  A
O971        C978   1.261       .  A
O972        C978   1.281   1_554  A
C973       C1189   1.477       .  S
C974       C1165   1.482       .  S
C976       C1186   1.482       .  S
C978       C1169   1.470       .  S
Zn979       O984   1.921       .  S
Zn979       O988   1.988       .  S
Zn979       O995   1.927       .  S
Zn979      O1403   1.919       .  S
Zn980      O1405   2.060       .  S
Zn980       O987   2.063       .  S
Zn980       O991   2.027       .  S
Zn980      O1403   1.971   1_556  S
Zn981       O986   1.998       .  S
Zn981       O989   1.950       .  S
Zn981       O992   1.948       .  S
Zn981       O983   1.929       .  S
Zn982       O990   2.089       .  S
Zn982       O993   2.047   1_545  S
Zn982      O1414   2.087   1_545  S
Zn982       O983   1.962   1_556  S
O983      Zn1399   1.942   1_545  S
O983      Zn1400   1.972   1_554  S
O984        C996   1.261   1_554  A
O985      Zn1400   2.072       .  S
O985        C997   1.280   1_556  A
O986        C998   1.270       .  A
O987        C996   1.279       .  A
O988       C1418   1.267       .  A
O989        C997   1.264       .  A
O990        C999   1.283   1_556  A
O991       C1420   1.274       .  A
O992        C999   1.265       .  A
O993       C1000   1.277       .  A
O994      Zn1402   2.071       .  S
O994       C1001   1.280       .  A
O995       C1001   1.262   1_554  A
C996       C1170   1.470       .  S
C997       C1158   1.472   1_554  S
C998       O1408   1.276   1_545  A
C998       C1218   1.477       .  S
C999       C1166   1.481   1_554  S
C1000      O1411   1.270       .  A
C1000      C1161   1.483       .  S
C1001      C1154   1.468       .  S
Zn1002     O1007   2.061       .  S
Zn1002     O1011   2.081       .  S
Zn1002     O1018   2.107       .  S
Zn1002     O1006   1.969   1_556  S
Zn1003     O1008   2.087       .  S
Zn1003     O1010   2.017       .  S
Zn1003     O1014   2.074       .  S
Zn1003     O1006   1.970   1_556  S
Zn1004     O1009   1.945       .  S
Zn1004     O1012   1.951       .  S
Zn1004     O1015   2.035       .  S
Zn1004     O1006   1.935       .  S
Zn1005     O1013   1.981       .  S
Zn1005     O1016   1.925       .  S
Zn1005     O1017   1.920       .  S
Zn1005     O1006   1.913       .  S
O1007      C1019   1.279       .  A
O1008      C1020   1.283   1_556  A
O1009      C1021   1.267   1_554  A
O1010      C1019   1.272       .  A
O1011      C1021   1.283       .  A
O1012      C1020   1.264       .  A
O1013      C1022   1.266       .  A
O1014      C1023   1.281       .  A
O1015      C1022   1.274       .  A
O1016      C1023   1.261   1_554  A
O1017      C1024   1.262   1_554  A
O1018      C1024   1.284       .  A
C1019      C1149   1.483       .  S
C1020      C1182   1.477       .  S
C1021      C1157   1.471       .  S
C1022      C1202   1.471       .  S
C1023      C1153   1.469       .  S
C1024      C1178   1.477       .  S
Zn1025     O1030   1.967       .  S
Zn1025     O1034   1.955       .  S
Zn1025     O1041   2.024       .  S
Zn1025     O1449   1.948       .  S
Zn1026     O1031   2.034       .  S
Zn1026     O1033   2.080       .  S
Zn1026     O1449   1.968       .  S
Zn1027     O1035   2.021       .  S
Zn1027     O1038   2.078       .  S
Zn1028     O1036   1.950       .  S
Zn1028     O1039   1.947       .  S
Zn1028     O1040   2.012       .  S
O1029     Zn1445   1.923       .  S
O1029     Zn1446   1.965       .  S
O1030      C1042   1.268       .  A
O1031      C1463   1.275       .  A
O1032      C1044   1.279       .  A
O1033      C1042   1.284       .  A
O1034      C1464   1.265       .  A
O1036      C1045   1.265       .  A
O1037      C1046   1.282       .  A
O1038      C1045   1.282       .  A
O1039      C1466   1.265   1_545  A
O1041      C1467   1.274   1_655  A
C1042      C1133   1.481       .  S
C1043      O1451   1.274   1_545  A
C1043      C1238   1.478       .  S
C1044      O1454   1.262   1_545  A
C1044      C1141   1.467       .  S
C1045      C1137   1.479       .  S
C1046      O1459   1.268       .  A
C1046      C1145   1.473       .  S
C1047      O1461   1.270       .  A
C1047      C1194   1.476       .  S
Zn1048     O1053   2.086       .  S
Zn1048     O1064   2.019       .  S
Zn1048     O1052   1.968       .  S
Zn1049     O1054   2.004       .  S
Zn1049     O1056   1.949       .  S
Zn1049     O1060   1.952       .  S
Zn1049     O1052   1.933       .  S
Zn1050     O1055   1.932       .  S
Zn1050     O1058   1.991       .  S
Zn1050     O1061   1.922       .  S
Zn1051     O1059   2.105       .  S
Zn1051     O1063   2.039       .  S
O1053      C1065   1.283       .  A
O1054      C1066   1.272       .  A
O1055      C1067   1.263       .  A
O1056      C1065   1.263       .  A
O1057      C1067   1.281       .  A
O1059      C1068   1.284       .  A
O1060      C1069   1.266       .  A
O1061      C1068   1.261       .  A
O1062      C1069   1.283       .  A
O1064      C1070   1.272       .  A
C1065      C1122   1.476       .  S
C1066      C1173   1.465       .  S
C1067      C1125   1.474       .  S
C1068      C1117   1.478       .  S
C1069      C1130   1.478       .  S
C1070      C1222   1.481       .  S
Zn1071     O1076   2.072       .  S
Zn1071     O1080   2.059       .  S
Zn1071     O1087   2.011       .  S
Zn1071     O1075   1.972   1_545  S
Zn1072     O1077   2.001       .  S
Zn1072     O1079   1.954       .  S
Zn1072     O1083   1.920   1_545  S
Zn1072     O1075   1.920   1_545  S
Zn1073     O1078   1.950       .  S
Zn1073     O1081   2.012       .  S
Zn1073     O1084   1.945       .  S
Zn1073     O1495   1.933       .  S
Zn1074     O1082   2.088       .  S
Zn1074     O1085   2.081       .  S
Zn1074     O1086   2.032       .  S
Zn1074     O1495   1.984       .  S
O1075     Zn1493   1.948       .  S
O1075     Zn1494   1.969       .  S
O1076      C1088   1.279       .  A
O1077      C1089   1.271   1_545  A
O1078      C1510   1.265       .  A
O1079      C1088   1.264       .  A
O1080      C1090   1.280       .  A
O1081      C1509   1.271       .  A
O1082      C1091   1.282       .  A
O1083      C1512   1.261       .  A
O1084      C1091   1.264       .  A
O1085      C1092   1.282       .  A
O1086      C1513   1.273       .  A
O1087      C1093   1.271       .  A
C1088      C1118   1.474       .  S
C1089      O1501   1.280       .  A
C1089      C1162   1.481       .  S
C1090      O1498   1.268   1_545  A
C1090      C1146   1.472       .  S
C1091      C1121   1.478       .  S
C1092      O1503   1.264       .  A
C1092      C1142   1.476       .  S
C1093      O1506   1.273   1_545  A
C1093      C1206   1.471       .  S
Zn1094     O1099   2.051       .  S
Zn1094     O1103   2.105       .  S
Zn1094     O1110   2.100       .  S
Zn1094     O1098   1.970       .  S
Zn1095     O1100   2.077       .  S
Zn1095     O1102   2.023       .  S
Zn1095     O1106   2.065       .  S
Zn1095     O1098   1.965       .  S
Zn1096     O1101   1.926       .  S
Zn1096     O1104   1.953       .  S
Zn1096     O1107   2.000       .  S
Zn1096     O1098   1.937       .  S
Zn1097     O1105   2.006       .  S
Zn1097     O1108   1.939       .  S
Zn1097     O1109   1.944       .  S
Zn1097     O1098   1.935       .  S
O1099      C1111   1.276       .  A
O1100      C1112   1.282       .  A
O1101      C1113   1.263       .  A
O1102      C1111   1.272       .  A
O1103      C1113   1.286       .  A
O1104      C1112   1.265       .  A
O1105      C1114   1.270       .  A
O1106      C1115   1.280       .  A
O1107      C1114   1.267       .  A
O1108      C1115   1.263       .  A
O1109      C1116   1.266       .  A
O1110      C1116   1.285       .  A
C1111      C1150   1.485       .  S
C1112      C1138   1.479       .  S
C1113      C1129   1.484       .  S
C1114      C1198   1.468       .  S
C1115      C1126   1.473       .  S
C1116      C1134   1.485       .  S
C1117      C1118   1.362       .  D
C1117      H1119   1.086       .  S
C1118      H1120   1.086       .  S
C1121      C1122   1.361       .  D
C1121      H1123   1.086       .  S
C1122      H1124   1.084       .  S
C1125      C1126   1.362       .  D
C1125      H1127   1.086       .  S
C1126      H1128   1.087       .  S
C1129      C1130   1.366       .  D
C1129      H1131   1.086       .  S
C1130      H1132   1.086       .  S
C1133      C1134   1.365       .  D
C1133      H1135   1.087       .  S
C1134      H1136   1.086       .  S
C1137      C1138   1.363       .  D
C1137      H1139   1.086       .  S
C1138      H1140   1.086       .  S
C1141      C1562   1.359   1_545  D
C1141      H1143   1.087       .  S
C1142      C1561   1.360       .  D
C1142      H1144   1.087       .  S
C1145      C1566   1.359       .  D
C1145      H1147   1.084       .  S
C1146      C1565   1.358   1_545  D
C1146      H1148   1.087       .  S
C1149      C1150   1.343       .  D
C1149      H1151   1.087       .  S
C1150      H1152   1.087       .  S
C1153      C1154   1.359       .  D
C1153      H1155   1.087       .  S
C1154      H1156   1.086       .  S
C1157      C1158   1.358       .  D
C1157      H1159   1.087       .  S
C1158      H1160   1.086       .  S
C1161      C1162   1.342       .  D
C1161      H1583   1.087       .  S
C1162      H1164   1.087   1_565  S
H1163      C1581   1.086       .  S
C1165      C1166   1.365   1_554  D
C1165      H1167   1.086       .  S
C1166      H1168   1.086       .  S
C1169      C1170   1.361       .  D
C1169      H1171   1.087   1_556  S
C1170      H1172   1.087       .  S
C1173      C1174   1.337       .  D
C1174      H1176   1.088       .  S
C1177      C1178   1.361   1_554  D
C1177      H1179   1.087       .  S
C1178      H1180   1.086       .  S
C1181      C1182   1.360       .  D
C1181      H1183   1.085       .  S
C1182      H1184   1.086       .  S
C1189      H1191   1.086       .  S
C1190      H1192   1.086       .  S
C1193      C1614   1.340   1_655  D
C1194      C1613   1.343   1_665  D
C1194      H1616   1.086       .  S
H1196      C1614   1.087       .  S
C1197      C1198   1.340       .  D
C1197      H1199   1.087       .  S
C1198      H1200   1.087       .  S
C1201      C1202   1.339       .  D
C1201      H1203   1.087       .  S
C1202      H1204   1.087       .  S
C1205      C1626   1.344       .  D
C1205      H1627   1.087       .  S
C1206      C1625   1.343   1_545  D
C1206      H1628   1.087       .  S
H1207      C1625   1.088       .  S
H1208      C1626   1.086       .  S
C1209      C1210   1.360       .  D
C1209      H1211   1.086       .  S
C1210      H1212   1.086       .  S
C1213      C1214   1.359       .  D
C1213      H1215   1.086       .  S
C1214      H1216   1.086       .  S
C1217      C1638   1.340       .  D
C1217      H1639   1.087       .  S
C1218      C1637   1.343   1_545  D
C1218      H1640   1.087       .  S
H1219      C1637   1.086       .  S
H1220      C1638   1.087       .  S
C1221      C1222   1.342       .  D
C1221      H1223   1.088       .  S
C1225      C1226   1.361       .  D
C1225      H1227   1.085       .  S
C1226      H1228   1.087       .  S
C1229      C1230   1.359       .  D
C1229      H1231   1.086       .  S
C1230      H1232   1.086       .  S
C1233      C1234   1.345       .  D
C1234      H1236   1.087       .  S
C1237      H1239   1.087       .  S
C1238      H1660   1.088       .  S
H1240      C1658   1.087       .  S
C1241      H1243   1.086       .  S
C1242      H1244   1.086       .  S
C1245      H1247   1.086       .  S
C1246      H1248   1.086       .  S
C1249      C1670   1.359       .  D
C1249      H1251   1.086       .  S
C1250      C1669   1.360   1_545  D
C1250      H1252   1.086       .  S
C1253      C1674   1.358   1_545  D
C1253      H1255   1.086       .  S
C1254      C1673   1.359       .  D
C1254      H1256   1.086       .  S
C1257      C1258   1.343   1_455  D
C1257      H1259   1.087       .  S
Zn1261     O1277   2.030       .  S
Zn1262     O1267   2.015       .  S
Zn1262     O1269   2.072       .  S
Zn1262     O1273   2.072       .  S
Zn1262     O1265   1.976       .  S
Zn1263     O1268   2.089       .  S
Zn1263     O1271   2.009       .  S
Zn1263     O1274   2.083       .  S
Zn1264     O1276   2.036       .  S
O1266      C1278   1.265       .  A
O1268      C1280   1.282       .  A
O1269      C1278   1.280       .  A
O1270      C1280   1.264   1_455  A
O1271      C1279   1.274   1_665  A
O1272      C1281   1.266       .  A
O1273      C1282   1.280       .  A
O1274      C1281   1.282       .  A
O1275      C1282   1.265       .  A
C1278      C1673   1.471       .  S
C1279      C1678   1.477       .  S
C1280      C1661   1.477       .  S
C1281      C1669   1.475       .  S
C1282      C1665   1.474       .  S
C1283      C1657   1.478       .  S
Zn1284     O1289   1.978       .  S
Zn1284     O1300   2.048       .  S
Zn1284     O1288   1.947       .  S
Zn1285     O1290   2.035       .  S
Zn1285     O1292   2.082       .  S
Zn1285     O1296   2.101       .  S
Zn1285     O1288   1.976       .  S
Zn1286     O1291   2.090       .  S
Zn1286     O1294   2.028       .  S
Zn1286     O1297   2.074       .  S
Zn1287     O1295   1.938       .  S
Zn1287     O1299   2.027       .  S
O1289      C1301   1.270       .  A
O1290      C1302   1.276       .  A
O1291      C1303   1.282       .  A
O1292      C1301   1.282       .  A
O1293      C1303   1.263   1_455  A
O1295      C1304   1.263       .  A
O1296      C1305   1.283       .  A
O1297      C1304   1.281       .  A
O1298      C1305   1.261       .  A
O1300      C1306   1.277       .  A
C1301      C1649   1.478       .  S
C1302      C1653   1.479       .  S
C1303      C1666   1.478       .  S
C1304      C1646   1.471       .  S
C1305      C1662   1.475       .  S
C1306      C1641   1.476       .  S
Zn1307     O1312   2.007       .  S
Zn1307     O1316   2.068       .  S
Zn1307     O1323   2.076       .  S
Zn1308     O1313   2.059       .  S
Zn1308     O1315   2.025       .  S
Zn1308     O1319   2.070       .  S
Zn1308     O1311   1.977       .  S
Zn1309     O1317   1.927       .  S
Zn1309     O1320   2.009       .  S
Zn1309     O1311   1.928       .  S
Zn1310     O1318   1.990       .  S
Zn1310     O1322   1.940       .  S
O1313      C1325   1.278       .  A
O1314      C1326   1.266       .  A
O1315      C1324   1.273       .  A
O1316      C1326   1.281       .  A
O1317      C1325   1.261       .  A
O1319      C1328   1.280       .  A
O1320      C1327   1.270   1_565  A
O1321      C1328   1.263   1_545  A
O1322      C1329   1.261       .  A
O1323      C1329   1.280       .  A
C1324      C1637   1.481       .  S
C1325      C1630   1.465       .  S
C1326      C1670   1.471       .  S
C1327      C1625   1.472   1_545  S
C1328      C1674   1.471       .  S
C1329      C1633   1.472       .  S
Zn1330     O1335   1.961       .  S
Zn1330     O1339   1.930       .  S
Zn1330     O1346   2.019       .  S
Zn1330     O1334   1.929       .  S
Zn1331     O1336   2.025       .  S
Zn1331     O1338   2.095       .  S
Zn1331     O1342   2.084       .  S
Zn1331     O1334   1.961       .  S
Zn1332     O1337   2.060       .  S
Zn1332     O1340   2.016       .  S
Zn1332     O1343   2.079       .  S
Zn1332     O1334   1.976       .  S
Zn1333     O1341   1.930       .  S
Zn1333     O1344   1.932       .  S
Zn1333     O1345   1.993       .  S
Zn1333     O1334   1.919       .  S
O1335      C1347   1.266       .  A
O1336      C1348   1.276       .  A
O1337      C1349   1.280       .  A
O1338      C1347   1.283       .  A
O1339      C1349   1.263       .  A
O1340      C1348   1.272       .  A
O1341      C1350   1.260       .  A
O1342      C1351   1.283       .  A
O1343      C1350   1.280       .  A
O1344      C1351   1.264       .  A
O1345      C1352   1.268       .  A
O1346      C1352   1.273       .  A
C1347      C1650   1.481       .  S
C1348      C1621   1.478       .  S
C1349      C1629   1.465       .  S
C1350      C1645   1.472       .  S
C1351      C1634   1.472       .  S
C1352      C1617   1.469       .  S
Zn1353     O1358   2.042       .  S
Zn1353     O1362   1.964       .  S
Zn1353     O1369   1.978       .  S
Zn1354     O1359   1.938       .  S
Zn1354     O1361   1.992       .  S
Zn1354     O1365   1.942       .  S
Zn1354     O1357   1.921   1_665  S
Zn1355     O1363   2.082   1_545  S
Zn1355     O1366   2.023       .  S
Zn1355     O1357   1.968   1_656  S
Zn1356     O1364   2.026       .  S
Zn1356     O1368   2.061       .  S
O1359      C1371   1.263   1_554  A
O1360      C1372   1.281   1_556  A
O1361      C1370   1.269       .  A
O1363      C1371   1.281       .  A
O1366      C1373   1.274   1_655  A
O1367      C1374   1.282   1_556  A
O1368      C1375   1.279   1_556  A
O1369      C1375   1.267       .  A
C1370      C1677   1.472       .  S
C1371      C1597   1.473       .  S
C1372      C1610   1.477       .  S
C1373      C1613   1.477       .  S
C1374      C1605   1.479   1_554  S
C1375      C1601   1.474       .  S
Zn1376     O1381   2.066       .  S
Zn1376     O1385   2.010       .  S
Zn1376     O1392   2.066       .  S
Zn1377     O1382   1.951       .  S
Zn1377     O1384   1.956   1_655  S
Zn1377     O1388   2.022       .  S
Zn1377     O1380   1.938   1_655  S
Zn1378     O1383   2.027       .  S
Zn1378     O1386   2.049       .  S
Zn1378     O1389   2.059       .  S
Zn1378     O1380   1.960   1_654  S
Zn1379     O1387   1.947       .  S
Zn1379     O1390   1.998       .  S
Zn1379     O1391   1.937       .  S
O1381      C1393   1.282   1_554  A
O1382      C1394   1.267   1_556  A
O1383      C1395   1.273   1_655  A
O1386      C1394   1.278       .  A
O1388      C1397   1.273   1_655  A
O1389      C1396   1.280       .  A
O1391      C1398   1.262   1_556  A
O1392      C1398   1.280       .  A
C1393      C1609   1.478       .  S
C1394      C1585   1.471       .  S
C1396      C1606   1.472       .  S
C1398      C1589   1.475       .  S
Zn1399     O1404   1.951       .  S
Zn1399     O1408   2.046       .  S
Zn1399     O1415   1.971       .  S
Zn1400     O1407   2.056   1_545  S
Zn1400     O1411   2.013   1_545  S
Zn1401     O1406   2.035       .  S
Zn1401     O1409   1.959       .  S
Zn1401     O1412   1.952       .  S
Zn1401     O1403   1.938       .  S
Zn1402     O1410   2.052       .  S
Zn1402     O1413   2.021       .  S
Zn1402     O1403   1.966   1_556  S
O1404      C1416   1.265       .  A
O1405      C1417   1.280   1_556  A
O1406      C1418   1.274       .  A
O1407      C1416   1.279   1_556  A
O1409      C1417   1.267       .  A
O1410      C1419   1.279   1_556  A
O1412      C1419   1.266       .  A
O1413      C1420   1.272       .  A
O1414      C1421   1.284   1_556  A
O1415      C1421   1.269       .  A
C1416      C1590   1.473       .  S
C1417      C1578   1.469   1_554  S
C1418      C1638   1.473       .  S
C1419      C1586   1.471   1_554  S
C1420      C1581   1.480       .  S
C1421      C1574   1.478       .  S
Zn1422     O1427   2.008       .  S
Zn1422     O1431   2.068       .  S
Zn1422     O1438   2.065       .  S
Zn1422     O1426   1.971   1_556  S
Zn1423     O1428   2.108       .  S
Zn1423     O1430   2.055       .  S
Zn1423     O1434   2.093       .  S
Zn1423     O1426   1.984   1_556  S
Zn1424     O1429   1.944       .  S
Zn1424     O1432   1.922       .  S
Zn1424     O1435   1.990       .  S
Zn1424     O1426   1.922       .  S
Zn1425     O1433   2.042       .  S
Zn1425     O1436   1.964       .  S
Zn1425     O1437   1.959       .  S
Zn1425     O1426   1.946       .  S
O1427      C1439   1.272       .  A
O1428      C1440   1.284   1_556  A
O1429      C1441   1.263       .  A
O1430      C1439   1.278       .  A
O1431      C1441   1.279   1_556  A
O1432      C1440   1.261       .  A
O1433      C1442   1.276       .  A
O1434      C1443   1.284   1_556  A
O1435      C1442   1.268       .  A
O1436      C1443   1.267       .  A
O1437      C1444   1.266   1_554  A
O1438      C1444   1.279       .  A
C1439      C1569   1.479       .  S
C1440      C1602   1.480   1_554  S
C1441      C1577   1.470   1_554  S
C1442      C1622   1.474       .  S
C1443      C1573   1.480   1_554  S
C1444      C1598   1.471       .  S
Zn1445     O1450   1.941       .  S
Zn1445     O1454   1.936       .  S
Zn1445     O1461   2.003       .  S
Zn1446     O1451   2.029       .  S
Zn1446     O1453   2.068       .  S
Zn1447     O1455   2.029       .  S
Zn1447     O1458   2.062       .  S
Zn1448     O1456   1.957       .  S
Zn1448     O1459   1.963       .  S
Zn1448     O1460   2.047       .  S
O1450      C1462   1.265       .  A
O1452      C1464   1.281       .  A
O1453      C1462   1.280       .  A
O1456      C1465   1.265       .  A
O1457      C1466   1.282       .  A
O1458      C1465   1.280       .  A
C1462      C1553   1.475       .  S
C1463      C1658   1.483       .  S
C1464      C1561   1.475       .  S
C1465      C1557   1.475       .  S
C1466      C1565   1.474       .  S
C1467      C1614   1.470       .  S
Zn1468     O1473   2.097       .  S
Zn1468     O1484   2.039       .  S
Zn1468     O1472   1.959       .  S
Zn1469     O1474   1.998       .  S
Zn1469     O1476   1.942       .  S
Zn1469     O1480   1.928       .  S
Zn1469     O1472   1.921       .  S
Zn1470     O1475   1.949       .  S
Zn1470     O1478   2.010       .  S
Zn1470     O1481   1.950       .  S
Zn1471     O1479   2.090       .  S
Zn1471     O1483   2.021       .  S
O1473      C1485   1.283       .  A
O1474      C1486   1.271       .  A
O1475      C1487   1.266       .  A
O1476      C1485   1.264       .  A
O1477      C1487   1.281       .  A
O1479      C1488   1.282       .  A
O1480      C1489   1.262       .  A
O1481      C1488   1.264       .  A
O1482      C1489   1.279       .  A
O1484      C1490   1.277       .  A
C1485      C1542   1.479       .  S
C1486      C1593   1.470       .  S
C1487      C1545   1.476       .  S
C1488      C1537   1.477       .  S
C1489      C1550   1.466       .  S
C1490      C1642   1.480       .  S
Zn1491     O1496   2.073       .  S
Zn1491     O1500   2.083       .  S
Zn1491     O1507   2.012       .  S
Zn1491     O1495   1.969       .  S
Zn1492     O1497   2.036       .  S
Zn1492     O1499   1.966       .  S
Zn1492     O1503   1.948       .  S
Zn1492     O1495   1.938       .  S
Zn1493     O1498   1.972       .  S
Zn1493     O1501   2.063       .  S
Zn1493     O1504   1.989       .  S
Zn1494     O1502   2.063       .  S
Zn1494     O1505   2.069       .  S
Zn1494     O1506   2.007       .  S
O1496      C1508   1.280       .  A
O1497      C1509   1.275       .  A
O1499      C1508   1.267       .  A
O1500      C1510   1.281       .  A
O1502      C1511   1.280       .  A
O1504      C1511   1.271       .  A
O1505      C1512   1.278       .  A
O1507      C1513   1.274       .  A
C1508      C1538   1.473       .  S
C1509      C1582   1.478       .  S
C1510      C1566   1.475       .  S
C1511      C1541   1.474       .  S
C1512      C1562   1.467       .  S
C1513      C1626   1.482       .  S
Zn1514     O1519   2.017       .  S
Zn1514     O1523   2.062       .  S
Zn1514     O1530   2.060       .  S
Zn1514     O1518   1.966       .  S
Zn1515     O1520   2.075       .  S
Zn1515     O1522   2.037       .  S
Zn1515     O1526   2.067       .  S
Zn1515     O1518   1.962       .  S
Zn1516     O1521   1.916       .  S
Zn1516     O1524   1.940       .  S
Zn1516     O1527   1.994       .  S
Zn1516     O1518   1.919       .  S
Zn1517     O1525   2.014       .  S
Zn1517     O1528   1.952       .  S
Zn1517     O1529   1.953       .  S
Zn1517     O1518   1.937       .  S
O1519      C1531   1.271       .  A
O1520      C1532   1.281       .  A
O1521      C1533   1.260       .  A
O1522      C1531   1.275       .  A
O1523      C1533   1.279       .  A
O1524      C1532   1.265       .  A
O1525      C1534   1.272       .  A
O1526      C1535   1.281       .  A
O1527      C1534   1.267       .  A
O1528      C1535   1.267       .  A
O1529      C1536   1.266       .  A
O1530      C1536   1.281       .  A
C1531      C1570   1.480       .  S
C1532      C1558   1.476       .  S
C1533      C1549   1.469       .  S
C1534      C1618   1.469       .  S
C1535      C1546   1.475       .  S
C1536      C1554   1.474       .  S
C1537      C1538   1.358       .  D
C1537      H1539   1.087       .  S
C1538      H1540   1.087       .  S
C1541      C1542   1.359       .  D
C1541      H1543   1.087       .  S
C1542      H1544   1.086       .  S
C1545      C1546   1.361       .  D
C1545      H1547   1.086       .  S
C1546      H1548   1.086       .  S
C1549      C1550   1.360       .  D
C1549      H1551   1.087       .  S
C1550      H1552   1.087       .  S
C1553      C1554   1.361       .  D
C1553      H1555   1.087       .  S
C1554      H1556   1.087       .  S
C1557      C1558   1.360       .  D
C1557      H1559   1.087       .  S
C1558      H1560   1.086       .  S
C1561      H1563   1.087       .  S
C1562      H1564   1.087       .  S
C1565      H1567   1.086       .  S
C1566      H1568   1.086       .  S
C1569      C1570   1.342       .  D
C1569      H1571   1.087       .  S
C1570      H1572   1.086       .  S
C1573      C1574   1.360   1_556  D
C1573      H1575   1.086       .  S
C1574      H1576   1.086   1_554  S
C1577      C1578   1.356       .  D
C1577      H1579   1.087       .  S
C1578      H1580   1.087       .  S
C1581      C1582   1.345       .  D
C1582      H1584   1.086       .  S
C1585      C1586   1.358   1_554  D
C1585      H1587   1.087       .  S
C1586      H1588   1.087       .  S
C1589      C1590   1.361       .  D
C1589      H1591   1.086       .  S
C1590      H1592   1.087   1_554  S
C1593      C1594   1.341       .  D
C1594      H1596   1.087       .  S
C1597      C1598   1.358       .  D
C1597      H1599   1.086       .  S
C1598      H1600   1.087       .  S
C1601      C1602   1.361   1_554  D
C1601      H1603   1.087       .  S
C1602      H1604   1.087       .  S
C1609      H1611   1.087   1_556  S
C1610      H1612   1.086   1_554  S
C1617      C1618   1.338       .  D
C1617      H1619   1.087       .  S
C1618      H1620   1.087       .  S
C1621      C1622   1.341       .  D
C1621      H1623   1.087       .  S
C1622      H1624   1.087       .  S
C1629      C1630   1.357       .  D
C1629      H1631   1.086       .  S
C1630      H1632   1.087       .  S
C1633      C1634   1.360       .  D
C1633      H1635   1.086       .  S
C1634      H1636   1.086       .  S
C1641      C1642   1.341       .  D
C1641      H1643   1.086       .  S
C1645      C1646   1.360       .  D
C1645      H1647   1.086       .  S
C1646      H1648   1.086       .  S
C1649      C1650   1.360       .  D
C1649      H1651   1.086       .  S
C1650      H1652   1.086       .  S
C1653      C1654   1.342       .  D
C1654      H1656   1.087       .  S
C1657      H1659   1.087       .  S
C1661      H1663   1.086       .  S
C1662      H1664   1.086       .  S
C1665      H1667   1.086       .  S
C1666      H1668   1.086       .  S
C1669      H1671   1.086       .  S
C1670      H1672   1.086       .  S
C1673      H1675   1.086       .  S
C1674      H1676   1.087       .  S
C1677      C1678   1.342   1_665  D
C1677      H1679   1.087       .  S
