geometry optimzed in LAMMPS
_audit_creation_date              2020-12-01 
_audit_creation_method            'lammps2cif' 
_symmetry_space_group_name_H-M    'P1' 
_symmetry_Int_Tables_number       1 
_symmetry_cell_setting            triclinic 
loop_ 
_symmetry_equiv_pos_as_xyz 
  x,y,z 
_cell_length_a                    33.0907579 
_cell_length_b                    33.089163411079994 
_cell_length_c                    27.82504178091115 
_cell_angle_alpha                 89.99829755162186 
_cell_angle_beta                  90.00208683991268 
_cell_angle_gamma                 119.99509362884045 
loop_ 
_atom_site_label 
_atom_site_type_symbol 
_atom_site_fract_x 
_atom_site_fract_y 
_atom_site_fract_z 
_atom_site_charge 
C1          C  0.21383805  0.47025674  0.03153973     0.03000
C2          C  0.25693573  0.46852318  0.02962011     0.02900
C3          C  0.29322740  0.00006060  0.50006455    -0.17600
C4          C  0.28847213  0.03159801  0.47050376     0.03000
C5          C  0.24364064  0.02986345  0.46858128     0.02900
C6          C  0.20802862  0.50006205  0.00006000    -0.17600
H7          H  0.17526569  0.50006284  0.00005673     0.05000
H8          H  0.32601984  0.00005873  0.50006676     0.05000
O9          O  0.30419078  0.44033427  0.17908475    -0.71100
O10         O  0.30419837  0.36392603  0.07104768    -0.71300
O11         O  0.30412000  0.44799791  0.08145653    -0.71200
O12         O  0.30410525  0.35618261  0.16867537    -0.71200
O13         O  0.23414702  0.34040510  0.18533152    -0.71100
O14         O  0.23416534  0.39382867  0.06477916    -0.71200
O15         O  0.23429333  0.31824084  0.09387296    -0.71100
O16         O  0.23429242  0.41613046  0.15623954    -0.71300
V17         V  0.30511756  0.40259203  0.12506606     1.35200
V18         V  0.23480341  0.36744092  0.12505585     1.35200
C19         C  0.26634938  0.44170349  0.18362281     0.78100
C20         C  0.26635617  0.32472088  0.06649990     0.78200
C21         C  0.26610740  0.43541752  0.05869077     0.78100
C22         C  0.26608706  0.33075352  0.19143013     0.78000
O23         O  0.26590915  0.15969727  0.43533283    -0.71100
O24         O  0.26589501  0.10627818  0.31477990    -0.71300
O25         O  0.26576249  0.18186299  0.34387463    -0.71200
O26         O  0.26576860  0.08397482  0.40623920    -0.71200
O27         O  0.19587021  0.05976867  0.42908240    -0.71100
O28         O  0.19585866  0.13617543  0.32104394    -0.71200
O29         O  0.19594172  0.05210596  0.33145445    -0.71100
O30         O  0.19595071  0.14391814  0.41867149    -0.71300
V31         V  0.26525507  0.13266378  0.37505672     1.35200
V32         V  0.19494115  0.09751002  0.37506301     1.35200
C33         C  0.23396813  0.16934783  0.44142916     0.78100
C34         C  0.23395451  0.06468847  0.30868997     0.78200
C35         C  0.23369982  0.17538137  0.31649887     0.78100
C36         C  0.23371259  0.05840128  0.43362161     0.78000
O37         O  0.39379580  0.15970055  0.31477078    -0.71100
O38         O  0.34038733  0.10628828  0.43532590    -0.71300
O39         O  0.41610369  0.18186656  0.40623280    -0.71200
O40         O  0.31821891  0.08398597  0.34386419    -0.71200
O41         O  0.36390114  0.05975738  0.32103616    -0.71100
O42         O  0.44032562  0.13617692  0.42906216    -0.71200
O43         O  0.35617710  0.05211201  0.41866701    -0.71100
O44         O  0.44796700  0.14390574  0.33143087    -0.71300
V45         V  0.36741656  0.13267047  0.37504860     1.35200
V46         V  0.40257409  0.09750641  0.37504886     1.35200
C47         C  0.43538247  0.16934200  0.30867168     0.78100
C48         C  0.33074486  0.06469869  0.44142623     0.78200
C49         C  0.44168924  0.17538625  0.43360570     0.78100
C50         C  0.32469518  0.05839742  0.31649262     0.78000
O51         O  0.13616318  0.44035205  0.07103248    -0.71100
O52         O  0.05973698  0.36393435  0.17905824    -0.71300
O53         O  0.14388731  0.44799712  0.16866300    -0.71200
O54         O  0.05209537  0.35620555  0.08142632    -0.71200
O55         O  0.10626482  0.34040834  0.06477180    -0.71100
O56         O  0.15967541  0.39381950  0.18532675    -0.71200
O57         O  0.08395606  0.31824254  0.15623385    -0.71100
O58         O  0.18184321  0.41612029  0.09386465    -0.71300
V59         V  0.09748938  0.40260387  0.12504471     1.35200
V60         V  0.13264464  0.36743747  0.12504960     1.35200
C61         C  0.17536831  0.44171018  0.06649144     0.78100
C62         C  0.05837157  0.32472421  0.18360470     0.78200
C63         C  0.16931898  0.43540942  0.19142464     0.78100
C64         C  0.06467869  0.33076837  0.05867004     0.78000
C65         C  0.47023677  0.21385586  0.46855939     0.03000
C66         C  0.46850353  0.25695601  0.47048085     0.02900
C67         C  0.00004169  0.29324892  0.00003541    -0.17600
C68         C  0.03157839  0.28849286  0.02959458     0.03000
C69         C  0.02984408  0.24365898  0.03151765     0.02900
C70         C  0.50004213  0.20804547  0.00003821    -0.17600
H71         H  0.50004231  0.17528080  0.50004021     0.05000
H72         H  0.00004058  0.32604338  0.00003414     0.05000
C73         C  0.47021555  0.25645153  0.28151749     0.03000
C74         C  0.46848212  0.21161799  0.27959577     0.02900
C75         C  0.50001850  0.20686190  0.25003774    -0.17600
C76         C  0.03155653  0.24315417  0.22048199     0.03000
C77         C  0.02982348  0.28625470  0.21855941     0.02900
C78         C  0.00001829  0.29206572  0.25003736    -0.17600
H79         H  0.00001849  0.32482966  0.25003786     0.05000
H80         H  0.50001899  0.17406696  0.25003793     0.05000
O81         O  0.08395436  0.26579062  0.09386179    -0.71100
O82         O  0.18183516  0.26579109  0.15624310    -0.70700
O83         O  0.15967989  0.26593400  0.06478045    -0.71200
O84         O  0.10625003  0.26592200  0.18532574    -0.71200
O85         O  0.05208330  0.19596413  0.16865191    -0.71100
O86         O  0.14389776  0.19597145  0.08144337    -0.71200
O87         O  0.13615119  0.19588313  0.17907083    -0.71100
O88         O  0.05974987  0.19588806  0.07102326    -0.71300
V89         V  0.13263996  0.26528028  0.12505243     1.35200
V90         V  0.09748881  0.19496287  0.12504761     1.35200
C91         C  0.05838208  0.23373174  0.06647985     0.78100
C92         C  0.17535474  0.23372685  0.18361829     0.78200
C93         C  0.16932912  0.23399020  0.05868616     0.78100
C94         C  0.06466215  0.23397966  0.19141419     0.78000
O95         O  0.35615596  0.30413151  0.33144050    -0.71100
O96         O  0.44797354  0.30414449  0.41865129    -0.71300
O97         O  0.44030592  0.30421983  0.32102221    -0.71200
O98         O  0.36390316  0.30422090  0.42906798    -0.71200
O99         O  0.31822181  0.23431133  0.40624487    -0.71100
O100        O  0.41610374  0.23431722  0.34386095    -0.71200
O101        O  0.39380993  0.23418515  0.43532596    -0.71100
O102        O  0.34037510  0.23416901  0.31478141    -0.71300
V103        V  0.40256618  0.30514277  0.37504578     1.35200
V104        V  0.36741770  0.23482505  0.37505294     1.35200
C105        C  0.33072504  0.26611200  0.30868554     0.78100
C106        C  0.43539678  0.26612894  0.44141375     0.78200
C107        C  0.44167559  0.26637717  0.31647895     0.78100
C108        C  0.32470060  0.26637601  0.43361772     0.78000
C109        C  0.21160518  0.24316293  0.02961557     0.03000
C110        C  0.25643457  0.28625723  0.03154004     0.02900
C111        C  0.29204708  0.29206707  0.00005983    -0.17600
C112        C  0.28623736  0.25645396  0.46857812     0.03000
C113        C  0.24314285  0.21162433  0.47050132     0.02900
C114        C  0.20685230  0.20687135  0.50005805    -0.17600
H115        H  0.17406161  0.17407994  0.50005710     0.05000
H116        H  0.32480809  0.32482877  0.00006099     0.05000
C117        C  0.25691138  0.28847726  0.22050207     0.03000
C118        C  0.21381704  0.24364812  0.21857868     0.02900
C119        C  0.20800726  0.20803444  0.25005963    -0.17600
C120        C  0.24362046  0.21384426  0.28153939     0.03000
C121        C  0.28844917  0.25693835  0.27961532     0.02900
C122        C  0.29320192  0.29323001  0.25005856    -0.17600
H123        H  0.32599381  0.32602242  0.25005789     0.05000
H124        H  0.17524602  0.17527255  0.25006034     0.05000
C125        C  0.21159201  0.46850945  0.22050248     0.03000
C126        C  0.25642309  0.47024317  0.21858165     0.02900
C127        C  0.29203576  0.00004558  0.25006115    -0.17600
C128        C  0.28622577  0.02985073  0.28153978     0.03000
C129        C  0.24312781  0.03158416  0.27961866     0.02900
C130        C  0.20683658  0.50004656  0.25006181    -0.17600
H131        H  0.17404366  0.50004761  0.25006224     0.05000
H132        H  0.32479770  0.00004528  0.25005985     0.05000
C133        C  0.21383808  0.47025677  0.53153971     0.03000
C134        C  0.25693576  0.46852314  0.52962009     0.02900
C135        C  0.29322744  0.00006067  0.00006457    -0.17600
C136        C  0.28847210  0.03159801  0.97050375     0.03000
C137        C  0.24364070  0.02986351  0.96858126     0.02900
C138        C  0.20802866  0.50006212  0.50006000    -0.17600
H139        H  0.17526583  0.50006294  0.50005671     0.05000
H140        H  0.32601979  0.00005887  0.00006685     0.05000
O141        O  0.30419086  0.44033415  0.67908478    -0.71100
O142        O  0.30419842  0.36392593  0.57104767    -0.71300
O143        O  0.30412010  0.44799788  0.58145652    -0.71200
O144        O  0.30410524  0.35618247  0.66867530    -0.71200
O145        O  0.23414709  0.34040518  0.68533163    -0.71100
O146        O  0.23416542  0.39382866  0.56477917    -0.71200
O147        O  0.23429328  0.31824086  0.59387288    -0.71100
O148        O  0.23429253  0.41613053  0.65623949    -0.71300
V149        V  0.30511762  0.40259194  0.62506604     1.35200
V150        V  0.23480345  0.36744094  0.62505586     1.35200
C151        C  0.26634951  0.44170350  0.68362280     0.78100
C152        C  0.26635613  0.32472087  0.56649982     0.78200
C153        C  0.26610747  0.43541751  0.55869078     0.78100
C154        C  0.26608714  0.33075353  0.69143019     0.78000
O155        O  0.26590917  0.15969729  0.93533284    -0.71100
O156        O  0.26589507  0.10627827  0.81477985    -0.71300
O157        O  0.26576246  0.18186307  0.84387466    -0.71200
O158        O  0.26576878  0.08397493  0.90623916    -0.71200
O159        O  0.19587036  0.05976872  0.92908233    -0.71100
O160        O  0.19585866  0.13617539  0.82104394    -0.71200
O161        O  0.19594177  0.05210600  0.83145439    -0.71100
O162        O  0.19595068  0.14391804  0.91867152    -0.71300
V163        V  0.26525516  0.13266386  0.87505671     1.35200
V164        V  0.19494122  0.09751003  0.87506300     1.35200
C165        C  0.23396819  0.16934782  0.94142921     0.78100
C166        C  0.23395455  0.06468851  0.80868990     0.78200
C167        C  0.23369980  0.17538139  0.81649885     0.78100
C168        C  0.23371266  0.05840132  0.93362158     0.78000
O169        O  0.39379574  0.15970058  0.81477083    -0.71100
O170        O  0.34038736  0.10628831  0.93532595    -0.71300
O171        O  0.41610373  0.18186665  0.90623278    -0.71200
O172        O  0.31821895  0.08398592  0.84386414    -0.71200
O173        O  0.36390126  0.05975739  0.82103618    -0.71100
O174        O  0.44032566  0.13617705  0.92906226    -0.71200
O175        O  0.35617722  0.05211209  0.91866711    -0.71100
O176        O  0.44796702  0.14390582  0.83143088    -0.71300
V177        V  0.36741657  0.13267049  0.87504863     1.35200
V178        V  0.40257418  0.09750650  0.87504893     1.35200
C179        C  0.43538241  0.16934202  0.80867165     0.78100
C180        C  0.33074490  0.06469876  0.94142624     0.78200
C181        C  0.44168930  0.17538637  0.93360572     0.78100
C182        C  0.32469525  0.05839741  0.81649261     0.78000
O183        O  0.13616318  0.44035216  0.57103245    -0.71100
O184        O  0.05973712  0.36393452  0.67905830    -0.71300
O185        O  0.14388733  0.44799727  0.66866296    -0.71200
O186        O  0.05209538  0.35620553  0.58142635    -0.71200
O187        O  0.10626485  0.34040837  0.56477176    -0.71100
O188        O  0.15967546  0.39381965  0.68532668    -0.71200
O189        O  0.08395611  0.31824265  0.65623381    -0.71100
O190        O  0.18184316  0.41612028  0.59386453    -0.71300
V191        V  0.09748940  0.40260396  0.62504469     1.35200
V192        V  0.13264466  0.36743756  0.62504954     1.35200
C193        C  0.17536829  0.44171020  0.56649137     0.78100
C194        C  0.05837171  0.32472428  0.68360469     0.78200
C195        C  0.16931904  0.43540953  0.69142458     0.78100
C196        C  0.06467872  0.33076833  0.55867002     0.78000
C197        C  0.47023687  0.21385598  0.96855936     0.03000
C198        C  0.46850359  0.25695607  0.97048081     0.02900
C199        C  0.00004153  0.29324861  0.50003556    -0.17600
C200        C  0.03157835  0.28849279  0.52959460     0.03000
C201        C  0.02984402  0.24365891  0.53151763     0.02900
C202        C  0.50004210  0.20804515  0.50003817    -0.17600
H203        H  0.50004225  0.17527971  0.00004031     0.05000
H204        H  0.00004039  0.32604406  0.50003438     0.05000
C205        C  0.47021559  0.25645164  0.78151743     0.03000
C206        C  0.46848205  0.21161795  0.77959569     0.02900
C207        C  0.50001856  0.20686192  0.75003779    -0.17600
C208        C  0.03155657  0.24315417  0.72048197     0.03000
C209        C  0.02982355  0.28625482  0.71855940     0.02900
C210        C  0.00001837  0.29206544  0.75003733    -0.17600
H211        H  0.00001861  0.32483122  0.75003786     0.05000
H212        H  0.50001911  0.17406715  0.75003804     0.05000
O213        O  0.08395421  0.26579056  0.59386181    -0.71100
O214        O  0.18183514  0.26579116  0.65624310    -0.70700
O215        O  0.15967978  0.26593394  0.56478041    -0.71200
O216        O  0.10624994  0.26592193  0.68532568    -0.71200
O217        O  0.05208321  0.19596408  0.66865186    -0.71100
O218        O  0.14389768  0.19597141  0.58144334    -0.71200
O219        O  0.13615121  0.19588317  0.67907080    -0.71100
O220        O  0.05974993  0.19588808  0.57102318    -0.71300
V221        V  0.13263987  0.26528026  0.62505240     1.35200
V222        V  0.09748878  0.19496287  0.62504758     1.35200
C223        C  0.05838202  0.23373168  0.56647982     0.78100
C224        C  0.17535475  0.23372692  0.68361827     0.78200
C225        C  0.16932903  0.23399018  0.55868613     0.78100
C226        C  0.06466211  0.23397967  0.69141414     0.78000
O227        O  0.35615593  0.30413159  0.83144052    -0.71100
O228        O  0.44797354  0.30414442  0.91865119    -0.71300
O229        O  0.44030593  0.30421994  0.82102214    -0.71200
O230        O  0.36390327  0.30422093  0.92906803    -0.71200
O231        O  0.31822187  0.23431141  0.90624485    -0.71100
O232        O  0.41610385  0.23431737  0.84386092    -0.71200
O233        O  0.39380991  0.23418514  0.93532597    -0.71100
O234        O  0.34037515  0.23416912  0.81478139    -0.71300
V235        V  0.40256619  0.30514279  0.87504575     1.35200
V236        V  0.36741775  0.23482511  0.87505291     1.35200
C237        C  0.33072504  0.26611204  0.80868554     0.78100
C238        C  0.43539679  0.26612899  0.94141373     0.78200
C239        C  0.44167566  0.26637725  0.81647892     0.78100
C240        C  0.32470064  0.26637601  0.93361771     0.78000
C241        C  0.21160513  0.24316292  0.52961552     0.03000
C242        C  0.25643450  0.28625720  0.53153998     0.02900
C243        C  0.29204711  0.29206700  0.50005991    -0.17600
C244        C  0.28623741  0.25645408  0.96857808     0.03000
C245        C  0.24314282  0.21162432  0.97050131     0.02900
C246        C  0.20685253  0.20687156  0.00005808    -0.17600
H247        H  0.17406081  0.17407911  0.00005718     0.05000
H248        H  0.32480806  0.32482854  0.50006112     0.05000
C249        C  0.25691138  0.28847728  0.72050209     0.03000
C250        C  0.21381708  0.24364818  0.71857870     0.02900
C251        C  0.20800720  0.20803435  0.75005955    -0.17600
C252        C  0.24362050  0.21384423  0.78153930     0.03000
C253        C  0.28844918  0.25693834  0.77961524     0.02900
C254        C  0.29320214  0.29323017  0.75005850    -0.17600
H255        H  0.32599318  0.32602172  0.75005778     0.05000
H256        H  0.17524643  0.17527294  0.75006028     0.05000
C257        C  0.21159210  0.46850955  0.72050240     0.03000
C258        C  0.25642316  0.47024323  0.71858158     0.02900
C259        C  0.29203548  0.00004544  0.75006116    -0.17600
C260        C  0.28622584  0.02985066  0.78153973     0.03000
C261        C  0.24312784  0.03158417  0.77961861     0.02900
C262        C  0.20683659  0.50004662  0.75006172    -0.17600
H263        H  0.17404380  0.50004771  0.75006210     0.05000
H264        H  0.32479876  0.00004510  0.75005982     0.05000
C265        C  0.21383808  0.97025678  0.03153977     0.03000
C266        C  0.25693570  0.96852313  0.02962009     0.02900
C267        C  0.29322746  0.50006068  0.50006456    -0.17600
C268        C  0.28847217  0.53159808  0.47050380     0.03000
C269        C  0.24364073  0.52986356  0.46858131     0.02900
C270        C  0.20802860  0.00006212  0.00006005    -0.17600
H271        H  0.17526593  0.00006297  0.00005681     0.05000
H272        H  0.32601996  0.50005883  0.50006678     0.05000
O273        O  0.30419082  0.94033416  0.17908480    -0.71100
O274        O  0.30419834  0.86392589  0.07104770    -0.71300
O275        O  0.30412005  0.94799787  0.08145655    -0.71200
O276        O  0.30410519  0.85618246  0.16867532    -0.71200
O277        O  0.23414703  0.84040516  0.18533154    -0.71100
O278        O  0.23416540  0.89382867  0.06477917    -0.71200
O279        O  0.23429321  0.81824086  0.09387289    -0.71100
O280        O  0.23429252  0.91613057  0.15623950    -0.71300
V281        V  0.30511759  0.90259194  0.12506606     1.35200
V282        V  0.23480345  0.86744098  0.12505585     1.35200
C283        C  0.26634953  0.94170356  0.18362281     0.78100
C284        C  0.26635607  0.82472084  0.06649983     0.78200
C285        C  0.26610744  0.93541751  0.05869079     0.78100
C286        C  0.26608708  0.83075351  0.19143016     0.78000
O287        O  0.26590924  0.65969724  0.43533286    -0.71100
O288        O  0.26589513  0.60627827  0.31477988    -0.71300
O289        O  0.26576239  0.68186301  0.34387467    -0.71200
O290        O  0.26576874  0.58397492  0.40623918    -0.71200
O291        O  0.19587033  0.55976873  0.42908240    -0.71100
O292        O  0.19585860  0.63617533  0.32104393    -0.71200
O293        O  0.19594182  0.55210601  0.33145444    -0.71100
O294        O  0.19595081  0.64391815  0.41867146    -0.71300
V295        V  0.26525515  0.63266384  0.37505672     1.35200
V296        V  0.19494121  0.59751002  0.37506302     1.35200
C297        C  0.23396826  0.66934784  0.44142918     0.78100
C298        C  0.23395459  0.56468856  0.30868991     0.78200
C299        C  0.23369978  0.67538135  0.31649885     0.78100
C300        C  0.23371268  0.55840137  0.43362164     0.78000
O301        O  0.39379566  0.65970049  0.31477073    -0.71100
O302        O  0.34038741  0.60628834  0.43532594    -0.71300
O303        O  0.41610380  0.68186669  0.40623271    -0.71200
O304        O  0.31821897  0.58398589  0.34386422    -0.71200
O305        O  0.36390121  0.55975733  0.32103616    -0.71100
O306        O  0.44032564  0.63617702  0.42906220    -0.71200
O307        O  0.35617710  0.55211203  0.41866698    -0.71100
O308        O  0.44796694  0.64390580  0.33143087    -0.71300
V309        V  0.36741659  0.63267048  0.37504861     1.35200
V310        V  0.40257413  0.59750645  0.37504888     1.35200
C311        C  0.43538234  0.66934196  0.30867160     0.78100
C312        C  0.33074489  0.56469876  0.44142622     0.78200
C313        C  0.44168932  0.67538638  0.43360567     0.78100
C314        C  0.32469523  0.55839740  0.31649261     0.78000
O315        O  0.13616323  0.94035215  0.07103250    -0.71100
O316        O  0.05973711  0.86393449  0.17905834    -0.71300
O317        O  0.14388745  0.94799729  0.16866294    -0.71200
O318        O  0.05209537  0.85620554  0.08142639    -0.71200
O319        O  0.10626483  0.84040839  0.06477179    -0.71100
O320        O  0.15967543  0.89381960  0.18532675    -0.71200
O321        O  0.08395603  0.81824260  0.15623380    -0.71100
O322        O  0.18184317  0.91612026  0.09386459    -0.71300
V323        V  0.09748943  0.90260396  0.12504473     1.35200
V324        V  0.13264463  0.86743753  0.12504958     1.35200
C325        C  0.17536830  0.94171023  0.06649143     0.78100
C326        C  0.05837165  0.82472426  0.18360474     0.78200
C327        C  0.16931906  0.93540955  0.19142461     0.78100
C328        C  0.06467870  0.83076840  0.05867001     0.78000
C329        C  0.47023682  0.71385598  0.46855938     0.03000
C330        C  0.46850346  0.75695600  0.47048090     0.02900
C331        C  0.00004163  0.79324892  0.00003541    -0.17600
C332        C  0.03157844  0.78849286  0.02959451     0.03000
C333        C  0.02984415  0.74365904  0.03151755     0.02900
C334        C  0.50004211  0.70804520  0.00003821    -0.17600
H335        H  0.50004224  0.67528078  0.50004027     0.05000
H336        H  0.00004049  0.82604312  0.00003419     0.05000
C337        C  0.47021559  0.75645160  0.28151749     0.03000
C338        C  0.46848200  0.71161792  0.27959570     0.02900
C339        C  0.50001849  0.70686186  0.25003778    -0.17600
C340        C  0.03155655  0.74315413  0.22048201     0.03000
C341        C  0.02982356  0.78625476  0.21855945     0.02900
C342        C  0.00001836  0.79206552  0.25003738    -0.17600
H343        H  0.00001858  0.82483060  0.25003787     0.05000
H344        H  0.50001902  0.67406711  0.25003802     0.05000
O345        O  0.08395420  0.76579056  0.09386186    -0.71100
O346        O  0.18183507  0.76579111  0.15624313    -0.70700
O347        O  0.15967972  0.76593384  0.06478041    -0.71200
O348        O  0.10624997  0.76592199  0.18532573    -0.71200
O349        O  0.05208332  0.69596409  0.16865191    -0.71100
O350        O  0.14389778  0.69597138  0.08144341    -0.71200
O351        O  0.13615121  0.69588312  0.17907085    -0.71100
O352        O  0.05975000  0.69588811  0.07102319    -0.71300
V353        V  0.13263985  0.76528024  0.12505243     1.35200
V354        V  0.09748884  0.69496285  0.12504762     1.35200
C355        C  0.05838210  0.73373173  0.06647980     0.78100
C356        C  0.17535472  0.73372691  0.18361830     0.78200
C357        C  0.16932905  0.73399013  0.05868615     0.78100
C358        C  0.06466218  0.73397966  0.19141420     0.78000
O359        O  0.35615583  0.80413153  0.33144056    -0.71100
O360        O  0.44797343  0.80414436  0.41865122    -0.71300
O361        O  0.44030583  0.80421985  0.32102214    -0.71200
O362        O  0.36390320  0.80422090  0.42906804    -0.71200
O363        O  0.31822180  0.73431138  0.40624484    -0.71100
O364        O  0.41610385  0.73431732  0.34386099    -0.71200
O365        O  0.39380981  0.73418507  0.43532600    -0.71100
O366        O  0.34037508  0.73416908  0.31478141    -0.71300
V367        V  0.40256609  0.80514274  0.37504577     1.35200
V368        V  0.36741768  0.73482506  0.37505293     1.35200
C369        C  0.33072495  0.76611199  0.30868557     0.78100
C370        C  0.43539668  0.76612893  0.44141379     0.78200
C371        C  0.44167564  0.76637721  0.31647898     0.78100
C372        C  0.32470061  0.76637597  0.43361773     0.78000
C373        C  0.21160514  0.74316285  0.02961556     0.03000
C374        C  0.25643447  0.78625717  0.03154001     0.02900
C375        C  0.29204706  0.79206698  0.00005990    -0.17600
C376        C  0.28623745  0.75645402  0.46857816     0.03000
C377        C  0.24314293  0.71162429  0.47050137     0.02900
C378        C  0.20685255  0.70687151  0.50005806    -0.17600
H379        H  0.17406094  0.67407918  0.50005706     0.05000
H380        H  0.32480803  0.82482858  0.00006111     0.05000
C381        C  0.25691133  0.78847728  0.22050210     0.03000
C382        C  0.21381706  0.74364816  0.21857869     0.02900
C383        C  0.20800718  0.70803442  0.25005962    -0.17600
C384        C  0.24362043  0.71384421  0.28153933     0.03000
C385        C  0.28844913  0.75693833  0.27961527     0.02900
C386        C  0.29320207  0.79323016  0.25005854    -0.17600
H387        H  0.32599313  0.82602173  0.25005784     0.05000
H388        H  0.17524617  0.67527285  0.25006043     0.05000
C389        C  0.21159213  0.96850954  0.22050245     0.03000
C390        C  0.25642316  0.97024326  0.21858161     0.02900
C391        C  0.29203543  0.50004546  0.25006119    -0.17600
C392        C  0.28622583  0.52985073  0.28153971     0.03000
C393        C  0.24312782  0.53158421  0.27961859     0.02900
C394        C  0.20683659  0.00004665  0.25006175    -0.17600
H395        H  0.17404398  0.00004775  0.25006211     0.05000
H396        H  0.32479871  0.50004509  0.25005993     0.05000
C397        C  0.21383805  0.97025671  0.53153971     0.03000
C398        C  0.25693570  0.96852311  0.52962007     0.02900
C399        C  0.29322745  0.50006073  0.00006461    -0.17600
C400        C  0.28847212  0.53159806  0.97050378     0.03000
C401        C  0.24364066  0.52986352  0.96858131     0.02900
C402        C  0.20802865  0.00006203  0.50005998    -0.17600
H403        H  0.17526564  0.00006285  0.50005677     0.05000
H404        H  0.32601989  0.50005891  0.00006684     0.05000
O405        O  0.30419078  0.94033423  0.67908472    -0.71100
O406        O  0.30419837  0.86392602  0.57104764    -0.71300
O407        O  0.30411996  0.94799787  0.58145651    -0.71200
O408        O  0.30410522  0.85618255  0.66867534    -0.71200
O409        O  0.23414703  0.84040510  0.68533159    -0.71100
O410        O  0.23416530  0.89382861  0.56477917    -0.71200
O411        O  0.23429333  0.81824082  0.59387295    -0.71100
O412        O  0.23429240  0.91613042  0.65623951    -0.71300
V413        V  0.30511755  0.90259200  0.62506603     1.35200
V414        V  0.23480340  0.86744088  0.62505586     1.35200
C415        C  0.26634938  0.94170346  0.68362278     0.78100
C416        C  0.26635619  0.82472090  0.56649984     0.78200
C417        C  0.26610732  0.93541744  0.55869077     0.78100
C418        C  0.26608705  0.83075348  0.69143014     0.78000
O419        O  0.26590919  0.65969725  0.93533282    -0.71100
O420        O  0.26589497  0.60627816  0.81477985    -0.71300
O421        O  0.26576247  0.68186302  0.84387466    -0.71200
O422        O  0.26576860  0.58397479  0.90623914    -0.71200
O423        O  0.19587021  0.55976865  0.92908236    -0.71100
O424        O  0.19585871  0.63617543  0.82104390    -0.71200
O425        O  0.19594169  0.55210593  0.83145441    -0.71100
O426        O  0.19595072  0.64391810  0.91867151    -0.71300
V427        V  0.26525507  0.63266377  0.87505670     1.35200
V428        V  0.19494115  0.59751001  0.87506299     1.35200
C429        C  0.23396817  0.66934779  0.94142920     0.78100
C430        C  0.23395445  0.56468843  0.80868993     0.78200
C431        C  0.23369984  0.67538139  0.81649885     0.78100
C432        C  0.23371258  0.55840128  0.93362160     0.78000
O433        O  0.39379576  0.65970063  0.81477083    -0.71100
O434        O  0.34038733  0.60628831  0.93532589    -0.71300
O435        O  0.41610376  0.68186665  0.90623282    -0.71200
O436        O  0.31821896  0.58398606  0.84386414    -0.71200
O437        O  0.36390120  0.55975747  0.82103618    -0.71100
O438        O  0.44032569  0.63617703  0.92906223    -0.71200
O439        O  0.35617722  0.55211211  0.91866713    -0.71100
O440        O  0.44796694  0.64390577  0.83143084    -0.71300
V441        V  0.36741659  0.63267055  0.87504863     1.35200
V442        V  0.40257414  0.59750651  0.87504891     1.35200
C443        C  0.43538238  0.66934201  0.80867165     0.78100
C444        C  0.33074490  0.56469875  0.94142623     0.78200
C445        C  0.44168929  0.67538633  0.93360576     0.78100
C446        C  0.32469524  0.55839752  0.81649259     0.78000
O447        O  0.13616325  0.94035216  0.57103250    -0.71100
O448        O  0.05973699  0.86393433  0.67905821    -0.71300
O449        O  0.14388737  0.94799718  0.66866296    -0.71200
O450        O  0.05209540  0.85620555  0.58142630    -0.71200
O451        O  0.10626482  0.84040830  0.56477178    -0.71100
O452        O  0.15967541  0.89381952  0.68532671    -0.71200
O453        O  0.08395606  0.81824250  0.65623382    -0.71100
O454        O  0.18184318  0.91612026  0.59386459    -0.71300
V455        V  0.09748941  0.90260389  0.62504468     1.35200
V456        V  0.13264464  0.86743746  0.62504956     1.35200
C457        C  0.17536833  0.94171020  0.56649142     0.78100
C458        C  0.05837158  0.82472416  0.68360466     0.78200
C459        C  0.16931901  0.93540944  0.69142461     0.78100
C460        C  0.06467870  0.83076833  0.55867003     0.78000
C461        C  0.47023680  0.71385594  0.96855943     0.03000
C462        C  0.46850356  0.75695602  0.97048079     0.02900
C463        C  0.00004160  0.79324885  0.50003554    -0.17600
C464        C  0.03157838  0.78849280  0.52959460     0.03000
C465        C  0.02984409  0.74365897  0.53151763     0.02900
C466        C  0.50004210  0.70804522  0.50003819    -0.17600
H467        H  0.50004226  0.67528088  0.00004036     0.05000
H468        H  0.00004048  0.82604332  0.50003433     0.05000
C469        C  0.47021554  0.75645152  0.78151746     0.03000
C470        C  0.46848206  0.71161794  0.77959571     0.02900
C471        C  0.50001845  0.70686177  0.75003771    -0.17600
C472        C  0.03155653  0.74315412  0.72048196     0.03000
C473        C  0.02982347  0.78625468  0.71855938     0.02900
C474        C  0.00001830  0.79206554  0.75003734    -0.17600
H475        H  0.00001851  0.82483033  0.75003786     0.05000
H476        H  0.50001892  0.67406725  0.75003788     0.05000
O477        O  0.08395436  0.76579058  0.59386176    -0.71100
O478        O  0.18183514  0.76579107  0.65624308    -0.70700
O479        O  0.15967987  0.76593397  0.56478040    -0.71200
O480        O  0.10625002  0.76592195  0.68532571    -0.71200
O481        O  0.05208329  0.69596409  0.66865188    -0.71100
O482        O  0.14389773  0.69597142  0.58144332    -0.71200
O483        O  0.13615116  0.69588310  0.67907081    -0.71100
O484        O  0.05974987  0.69588802  0.57102323    -0.71300
V485        V  0.13263994  0.76528025  0.62505240     1.35200
V486        V  0.09748879  0.69496283  0.62504758     1.35200
C487        C  0.05838208  0.73373169  0.56647981     0.78100
C488        C  0.17535468  0.73372682  0.68361830     0.78200
C489        C  0.16932907  0.73399017  0.55868610     0.78100
C490        C  0.06466215  0.73397962  0.69141416     0.78000
O491        O  0.35615596  0.80413154  0.83144048    -0.71100
O492        O  0.44797352  0.80414444  0.91865124    -0.71300
O493        O  0.44030591  0.80421980  0.82102217    -0.71200
O494        O  0.36390321  0.80422093  0.92906798    -0.71200
O495        O  0.31822181  0.73431138  0.90624485    -0.71100
O496        O  0.41610371  0.73431722  0.84386091    -0.71200
O497        O  0.39380992  0.73418511  0.93532592    -0.71100
O498        O  0.34037499  0.73416901  0.81478140    -0.71300
V499        V  0.40256617  0.80514275  0.87504575     1.35200
V500        V  0.36741766  0.73482504  0.87505290     1.35200
C501        C  0.33072497  0.76611200  0.80868555     0.78100
C502        C  0.43539678  0.76612894  0.94141370     0.78200
C503        C  0.44167557  0.76637713  0.81647892     0.78100
C504        C  0.32470062  0.76637603  0.93361770     0.78000
C505        C  0.21160518  0.74316291  0.52961552     0.03000
C506        C  0.25643455  0.78625721  0.53154001     0.02900
C507        C  0.29204711  0.79206706  0.50005984    -0.17600
C508        C  0.28623738  0.75645398  0.96857812     0.03000
C509        C  0.24314287  0.71162428  0.97050135     0.02900
C510        C  0.20685245  0.70687138  0.00005814    -0.17600
H511        H  0.17406127  0.67407943  0.00005718     0.05000
H512        H  0.32480805  0.82482873  0.50006095     0.05000
C513        C  0.25691137  0.78847723  0.72050202     0.03000
C514        C  0.21381702  0.74364809  0.71857866     0.02900
C515        C  0.20800726  0.70803441  0.75005957    -0.17600
C516        C  0.24362046  0.71384426  0.78153935     0.03000
C517        C  0.28844913  0.75693840  0.77961533     0.02900
C518        C  0.29320189  0.79322999  0.75005850    -0.17600
H519        H  0.32599394  0.82602257  0.75005782     0.05000
H520        H  0.17524601  0.67527249  0.75006031     0.05000
C521        C  0.21159205  0.96850944  0.72050247     0.03000
C522        C  0.25642312  0.97024313  0.71858162     0.02900
C523        C  0.29203573  0.50004557  0.75006114    -0.17600
C524        C  0.28622578  0.52985074  0.78153974     0.03000
C525        C  0.24312778  0.53158414  0.77961864     0.02900
C526        C  0.20683664  0.00004657  0.75006175    -0.17600
H527        H  0.17404372  0.00004766  0.75006216     0.05000
H528        H  0.32479781  0.50004526  0.75005984     0.05000
C529        C  0.71383802  0.47025674  0.03153973     0.03000
C530        C  0.75693572  0.46852318  0.02962012     0.02900
C531        C  0.79322741  0.00006059  0.50006456    -0.17600
C532        C  0.78847213  0.03159803  0.47050378     0.03000
C533        C  0.74364066  0.02986345  0.46858129     0.02900
C534        C  0.70802859  0.50006204  0.00006001    -0.17600
H535        H  0.67526571  0.50006283  0.00005673     0.05000
H536        H  0.82601983  0.00005873  0.50006676     0.05000
O537        O  0.80419080  0.44033427  0.17908474    -0.71100
O538        O  0.80419839  0.36392603  0.07104768    -0.71300
O539        O  0.80412000  0.44799791  0.08145653    -0.71200
O540        O  0.80410528  0.35618261  0.16867537    -0.71200
O541        O  0.73414705  0.34040510  0.18533152    -0.71100
O542        O  0.73416533  0.39382867  0.06477918    -0.71200
O543        O  0.73429335  0.31824083  0.09387297    -0.71100
O544        O  0.73429241  0.41613044  0.15623956    -0.71300
V545        V  0.80511758  0.40259203  0.12506605     1.35200
V546        V  0.73480342  0.36744092  0.12505585     1.35200
C547        C  0.76634939  0.44170349  0.18362281     0.78100
C548        C  0.76635620  0.32472088  0.06649990     0.78200
C549        C  0.76610736  0.43541751  0.05869079     0.78100
C550        C  0.76608709  0.33075352  0.19143012     0.78000
O551        O  0.76590918  0.15969727  0.43533283    -0.71100
O552        O  0.76589501  0.10627818  0.31477989    -0.71300
O553        O  0.76576249  0.18186297  0.34387465    -0.71200
O554        O  0.76576863  0.08397482  0.40623920    -0.71200
O555        O  0.69587024  0.05976867  0.42908240    -0.71100
O556        O  0.69585868  0.13617542  0.32104394    -0.71200
O557        O  0.69594172  0.05210597  0.33145444    -0.71100
O558        O  0.69595074  0.14391814  0.41867149    -0.71300
V559        V  0.76525509  0.13266377  0.37505672     1.35200
V560        V  0.69494117  0.09751003  0.37506302     1.35200
C561        C  0.73396817  0.16934783  0.44142916     0.78100
C562        C  0.73395447  0.06468847  0.30868996     0.78200
C563        C  0.73369984  0.17538136  0.31649886     0.78100
C564        C  0.73371261  0.05840128  0.43362161     0.78000
O565        O  0.89379566  0.15970056  0.31477075    -0.71100
O566        O  0.84038735  0.10628831  0.43532595    -0.71300
O567        O  0.91610371  0.18186656  0.40623279    -0.71200
O568        O  0.81821891  0.08398596  0.34386420    -0.71200
O569        O  0.86390114  0.05975737  0.32103614    -0.71100
O570        O  0.94032563  0.13617691  0.42906215    -0.71200
O571        O  0.85617702  0.05211199  0.41866696    -0.71100
O572        O  0.94796686  0.14390575  0.33143085    -0.71300
V573        V  0.86741654  0.13267047  0.37504862     1.35200
V574        V  0.90257405  0.09750641  0.37504885     1.35200
C575        C  0.93538231  0.16934200  0.30867164     0.78100
C576        C  0.83074485  0.06469869  0.44142624     0.78200
C577        C  0.94168926  0.17538625  0.43360569     0.78100
C578        C  0.82469517  0.05839742  0.31649262     0.78000
O579        O  0.63616314  0.44035205  0.07103247    -0.71100
O580        O  0.55973700  0.36393439  0.17905829    -0.71300
O581        O  0.64388733  0.44799717  0.16866297    -0.71200
O582        O  0.55209539  0.35620554  0.08142633    -0.71200
O583        O  0.60626485  0.34040834  0.06477179    -0.71100
O584        O  0.65967533  0.39381948  0.18532678    -0.71200
O585        O  0.58395595  0.31824250  0.15623379    -0.71100
O586        O  0.68184318  0.41612031  0.09386466    -0.71300
V587        V  0.59748938  0.40260387  0.12504471     1.35200
V588        V  0.63264461  0.36743746  0.12504960     1.35200
C589        C  0.67536829  0.44171018  0.06649144     0.78100
C590        C  0.55837155  0.32472420  0.18360469     0.78200
C591        C  0.66931897  0.43540943  0.19142464     0.78100
C592        C  0.56467872  0.33076837  0.05867003     0.78000
C593        C  0.97023677  0.21385587  0.46855938     0.03000
C594        C  0.96850352  0.25695601  0.47048086     0.02900
C595        C  0.50004170  0.29324892  0.00003541    -0.17600
C596        C  0.53157842  0.28849286  0.02959458     0.03000
C597        C  0.52984410  0.24365898  0.03151764     0.02900
C598        C  0.00004212  0.20804547  0.00003822    -0.17600
H599        H  0.00004229  0.17528077  0.50004022     0.05000
H600        H  0.50004061  0.32604340  0.00003413     0.05000
C601        C  0.97021555  0.25645155  0.28151750     0.03000
C602        C  0.96848205  0.21161798  0.27959576     0.02900
C603        C  0.00001845  0.20686190  0.25003775    -0.17600
C604        C  0.53155656  0.24315419  0.22048199     0.03000
C605        C  0.52982349  0.28625471  0.21855944     0.02900
C606        C  0.50001830  0.29206572  0.25003738    -0.17600
H607        H  0.50001850  0.32482967  0.25003789     0.05000
H608        H  0.00001892  0.17406690  0.25003794     0.05000
O609        O  0.58395438  0.26579062  0.09386177    -0.71100
O610        O  0.68183508  0.26579113  0.15624317    -0.70700
O611        O  0.65967989  0.26593401  0.06478045    -0.71200
O612        O  0.60625003  0.26592202  0.18532572    -0.71200
O613        O  0.55208332  0.19596413  0.16865192    -0.71100
O614        O  0.64389776  0.19597145  0.08144335    -0.71200
O615        O  0.63615118  0.19588312  0.17907082    -0.71100
O616        O  0.55974989  0.19588806  0.07102326    -0.71300
V617        V  0.63263994  0.26528029  0.12505244     1.35200
V618        V  0.59748882  0.19496287  0.12504761     1.35200
C619        C  0.55838210  0.23373174  0.06647984     0.78100
C620        C  0.67535467  0.23372687  0.18361834     0.78200
C621        C  0.66932910  0.23399022  0.05868614     0.78100
C622        C  0.56466217  0.23397967  0.19141419     0.78000
O623        O  0.85615596  0.30413154  0.33144049    -0.71100
O624        O  0.94797353  0.30414448  0.41865129    -0.71300
O625        O  0.94030594  0.30421983  0.32102221    -0.71200
O626        O  0.86390318  0.30422090  0.42906798    -0.71200
O627        O  0.81822183  0.23431133  0.40624489    -0.71100
O628        O  0.91610374  0.23431724  0.34386095    -0.71200
O629        O  0.89380993  0.23418514  0.43532595    -0.71100
O630        O  0.84037501  0.23416901  0.31478144    -0.71300
V631        V  0.90256618  0.30514277  0.37504577     1.35200
V632        V  0.86741768  0.23482505  0.37505294     1.35200
C633        C  0.83072497  0.26611201  0.30868559     0.78100
C634        C  0.93539674  0.26612893  0.44141376     0.78200
C635        C  0.94167561  0.26637718  0.31647895     0.78100
C636        C  0.82470061  0.26637601  0.43361773     0.78000
C637        C  0.71160517  0.24316292  0.02961556     0.03000
C638        C  0.75643459  0.28625723  0.03154005     0.02900
C639        C  0.79204710  0.29206706  0.00005984    -0.17600
C640        C  0.78623738  0.25645399  0.46857811     0.03000
C641        C  0.74314286  0.21162432  0.47050134     0.02900
C642        C  0.70685232  0.20687134  0.50005806    -0.17600
H643        H  0.67406161  0.17407991  0.50005710     0.05000
H644        H  0.82480811  0.32482875  0.00006100     0.05000
C645        C  0.75691138  0.28847726  0.22050204     0.03000
C646        C  0.71381703  0.24364813  0.21857867     0.02900
C647        C  0.70800727  0.20803443  0.25005960    -0.17600
C648        C  0.74362047  0.21384426  0.28153937     0.03000
C649        C  0.78844914  0.25693837  0.27961534     0.02900
C650        C  0.79320192  0.29323002  0.25005853    -0.17600
H651        H  0.82599382  0.32602242  0.25005788     0.05000
H652        H  0.67524604  0.17527256  0.25006033     0.05000
C653        C  0.71159202  0.46850944  0.22050248     0.03000
C654        C  0.75642311  0.47024316  0.21858165     0.02900
C655        C  0.79203553  0.00004559  0.25006116    -0.17600
C656        C  0.78622577  0.02985073  0.28153978     0.03000
C657        C  0.74312778  0.03158416  0.27961866     0.02900
C658        C  0.70683661  0.50004656  0.25006181    -0.17600
H659        H  0.67404367  0.50004761  0.25006224     0.05000
H660        H  0.82479869  0.00004529  0.25005985     0.05000
C661        C  0.71383804  0.47025677  0.53153972     0.03000
C662        C  0.75693571  0.46852315  0.52962009     0.02900
C663        C  0.79322743  0.00006066  0.00006458    -0.17600
C664        C  0.78847212  0.03159801  0.97050376     0.03000
C665        C  0.74364071  0.02986351  0.96858126     0.02900
C666        C  0.70802860  0.50006211  0.50006002    -0.17600
H667        H  0.67526568  0.50006292  0.50005673     0.05000
H668        H  0.82601982  0.00005884  0.00006687     0.05000
O669        O  0.80419081  0.44033414  0.67908477    -0.71100
O670        O  0.80419844  0.36392593  0.57104768    -0.71300
O671        O  0.80412011  0.44799789  0.58145650    -0.71200
O672        O  0.80410519  0.35618247  0.66867531    -0.71200
O673        O  0.73414703  0.34040518  0.68533163    -0.71100
O674        O  0.73416544  0.39382866  0.56477915    -0.71200
O675        O  0.73429331  0.31824087  0.59387290    -0.71100
O676        O  0.73429249  0.41613052  0.65623947    -0.71300
V677        V  0.80511762  0.40259195  0.62506604     1.35200
V678        V  0.73480345  0.36744094  0.62505585     1.35200
C679        C  0.76634946  0.44170349  0.68362278     0.78100
C680        C  0.76635613  0.32472086  0.56649983     0.78200
C681        C  0.76610748  0.43541753  0.55869078     0.78100
C682        C  0.76608711  0.33075354  0.69143020     0.78000
O683        O  0.76590916  0.15969729  0.93533284    -0.71100
O684        O  0.76589510  0.10627827  0.81477985    -0.71300
O685        O  0.76576247  0.18186307  0.84387464    -0.71200
O686        O  0.76576881  0.08397494  0.90623916    -0.71200
O687        O  0.69587039  0.05976873  0.92908233    -0.71100
O688        O  0.69585867  0.13617537  0.82104393    -0.71200
O689        O  0.69594181  0.05210599  0.83145439    -0.71100
O690        O  0.69595067  0.14391804  0.91867151    -0.71300
V691        V  0.76525518  0.13266387  0.87505671     1.35200
V692        V  0.69494124  0.09751002  0.87506299     1.35200
C693        C  0.73396815  0.16934782  0.94142919     0.78100
C694        C  0.73395459  0.06468852  0.80868990     0.78200
C695        C  0.73369981  0.17538140  0.81649887     0.78100
C696        C  0.73371270  0.05840133  0.93362158     0.78000
O697        O  0.89379577  0.15970057  0.81477083    -0.71100
O698        O  0.84038740  0.10628831  0.93532596    -0.71300
O699        O  0.91610376  0.18186665  0.90623277    -0.71200
O700        O  0.81821898  0.08398592  0.84386414    -0.71200
O701        O  0.86390129  0.05975739  0.82103618    -0.71100
O702        O  0.94032569  0.13617705  0.92906226    -0.71200
O703        O  0.85617725  0.05211209  0.91866711    -0.71100
O704        O  0.94796705  0.14390583  0.83143088    -0.71300
V705        V  0.86741660  0.13267049  0.87504863     1.35200
V706        V  0.90257421  0.09750650  0.87504893     1.35200
C707        C  0.93538243  0.16934202  0.80867166     0.78100
C708        C  0.83074493  0.06469875  0.94142625     0.78200
C709        C  0.94168933  0.17538637  0.93360571     0.78100
C710        C  0.82469528  0.05839741  0.81649261     0.78000
O711        O  0.63616320  0.44035216  0.57103246    -0.71100
O712        O  0.55973711  0.36393451  0.67905829    -0.71300
O713        O  0.64388732  0.44799727  0.66866296    -0.71200
O714        O  0.55209541  0.35620553  0.58142635    -0.71200
O715        O  0.60626488  0.34040837  0.56477176    -0.71100
O716        O  0.65967543  0.39381964  0.68532670    -0.71200
O717        O  0.58395610  0.31824264  0.65623380    -0.71100
O718        O  0.68184318  0.41612027  0.59386453    -0.71300
V719        V  0.59748941  0.40260396  0.62504468     1.35200
V720        V  0.63264467  0.36743756  0.62504955     1.35200
C721        C  0.67536829  0.44171019  0.56649138     0.78100
C722        C  0.55837166  0.32472428  0.68360468     0.78200
C723        C  0.66931899  0.43540953  0.69142461     0.78100
C724        C  0.56467875  0.33076833  0.55867002     0.78000
C725        C  0.97023688  0.21385598  0.96855935     0.03000
C726        C  0.96850360  0.25695607  0.97048080     0.02900
C727        C  0.50004156  0.29324862  0.50003555    -0.17600
C728        C  0.53157837  0.28849280  0.52959459     0.03000
C729        C  0.52984404  0.24365893  0.53151762     0.02900
C730        C  0.00004209  0.20804515  0.50003818    -0.17600
H731        H  0.00004224  0.17527969  0.00004034     0.05000
H732        H  0.50004042  0.32604407  0.50003436     0.05000
C733        C  0.97021561  0.25645164  0.78151743     0.03000
C734        C  0.96848207  0.21161795  0.77959569     0.02900
C735        C  0.00001855  0.20686192  0.75003777    -0.17600
C736        C  0.53155658  0.24315418  0.72048199     0.03000
C737        C  0.52982354  0.28625480  0.71855939     0.02900
C738        C  0.50001837  0.29206546  0.75003735    -0.17600
H739        H  0.50001862  0.32483118  0.75003788     0.05000
H740        H  0.00001909  0.17406713  0.75003801     0.05000
O741        O  0.58395425  0.26579058  0.59386179    -0.71100
O742        O  0.68183515  0.26579113  0.65624306    -0.70700
O743        O  0.65967980  0.26593393  0.56478041    -0.71200
O744        O  0.60624996  0.26592194  0.68532567    -0.71200
O745        O  0.55208321  0.19596408  0.66865186    -0.71100
O746        O  0.64389768  0.19597140  0.58144335    -0.71200
O747        O  0.63615114  0.19588319  0.67907084    -0.71100
O748        O  0.55974984  0.19588806  0.57102322    -0.71300
V749        V  0.63263989  0.26528026  0.62505239     1.35200
V750        V  0.59748876  0.19496287  0.62504759     1.35200
C751        C  0.55838200  0.23373168  0.56647983     0.78100
C752        C  0.67535473  0.23372692  0.68361827     0.78200
C753        C  0.66932905  0.23399017  0.55868613     0.78100
C754        C  0.56466214  0.23397968  0.69141414     0.78000
O755        O  0.85615596  0.30413158  0.83144052    -0.71100
O756        O  0.94797357  0.30414442  0.91865118    -0.71300
O757        O  0.94030596  0.30421994  0.82102214    -0.71200
O758        O  0.86390330  0.30422093  0.92906803    -0.71200
O759        O  0.81822189  0.23431141  0.90624486    -0.71100
O760        O  0.91610388  0.23431737  0.84386092    -0.71200
O761        O  0.89380994  0.23418514  0.93532597    -0.71100
O762        O  0.84037518  0.23416912  0.81478138    -0.71300
V763        V  0.90256622  0.30514279  0.87504575     1.35200
V764        V  0.86741778  0.23482511  0.87505291     1.35200
C765        C  0.83072505  0.26611204  0.80868553     0.78100
C766        C  0.93539682  0.26612898  0.94141372     0.78200
C767        C  0.94167569  0.26637725  0.81647893     0.78100
C768        C  0.82470067  0.26637600  0.93361771     0.78000
C769        C  0.71160513  0.24316290  0.52961554     0.03000
C770        C  0.75643450  0.28625721  0.53153997     0.02900
C771        C  0.79204695  0.29206693  0.50005984    -0.17600
C772        C  0.78623743  0.25645407  0.96857809     0.03000
C773        C  0.74314282  0.21162431  0.97050130     0.02900
C774        C  0.70685260  0.20687164  0.00005808    -0.17600
H775        H  0.67406044  0.17407877  0.00005713     0.05000
H776        H  0.82480847  0.32482912  0.50006101     0.05000
C777        C  0.75691134  0.28847726  0.72050208     0.03000
C778        C  0.71381707  0.24364816  0.71857868     0.02900
C779        C  0.70800719  0.20803436  0.75005955    -0.17600
C780        C  0.74362046  0.21384426  0.78153935     0.03000
C781        C  0.78844917  0.25693833  0.77961526     0.02900
C782        C  0.79320222  0.29323025  0.75005849    -0.17600
H783        H  0.82599279  0.32602132  0.75005781     0.05000
H784        H  0.67524632  0.17527282  0.75006024     0.05000
C785        C  0.71159206  0.46850955  0.72050241     0.03000
C786        C  0.75642315  0.47024323  0.71858158     0.02900
C787        C  0.79203551  0.00004544  0.75006115    -0.17600
C788        C  0.78622588  0.02985065  0.78153973     0.03000
C789        C  0.74312785  0.03158417  0.77961861     0.02900
C790        C  0.70683658  0.50004663  0.75006173    -0.17600
H791        H  0.67404381  0.50004774  0.75006212     0.05000
H792        H  0.82479880  0.00004510  0.75005982     0.05000
C793        C  0.71383804  0.97025679  0.03153975     0.03000
C794        C  0.75693570  0.96852313  0.02962010     0.02900
C795        C  0.79322744  0.50006069  0.50006455    -0.17600
C796        C  0.78847210  0.53159807  0.47050379     0.03000
C797        C  0.74364067  0.52986355  0.46858132     0.02900
C798        C  0.70802864  0.00006213  0.00006004    -0.17600
H799        H  0.67526576  0.00006301  0.00005677     0.05000
H800        H  0.82601963  0.50005885  0.50006676     0.05000
O801        O  0.80419083  0.94033416  0.17908480    -0.71100
O802        O  0.80419835  0.86392588  0.07104771    -0.71300
O803        O  0.80412005  0.94799786  0.08145654    -0.71200
O804        O  0.80410519  0.85618246  0.16867532    -0.71200
O805        O  0.73414702  0.84040516  0.18533154    -0.71100
O806        O  0.73416537  0.89382868  0.06477918    -0.71200
O807        O  0.73429320  0.81824088  0.09387288    -0.71100
O808        O  0.73429252  0.91613060  0.15623950    -0.71300
V809        V  0.80511758  0.90259193  0.12506606     1.35200
V810        V  0.73480342  0.86744098  0.12505585     1.35200
C811        C  0.76634951  0.94170356  0.18362281     0.78100
C812        C  0.76635605  0.82472083  0.06649985     0.78200
C813        C  0.76610742  0.93541751  0.05869079     0.78100
C814        C  0.76608706  0.83075350  0.19143015     0.78000
O815        O  0.76590925  0.65969726  0.43533288    -0.71100
O816        O  0.76589506  0.60627828  0.31477985    -0.71300
O817        O  0.76576242  0.68186302  0.34387467    -0.71200
O818        O  0.76576873  0.58397491  0.40623918    -0.71200
O819        O  0.69587032  0.55976874  0.42908239    -0.71100
O820        O  0.69585863  0.63617533  0.32104393    -0.71200
O821        O  0.69594181  0.55210596  0.33145447    -0.71100
O822        O  0.69595082  0.64391814  0.41867145    -0.71300
V823        V  0.76525515  0.63266384  0.37505672     1.35200
V824        V  0.69494122  0.59751002  0.37506302     1.35200
C825        C  0.73396828  0.66934785  0.44142918     0.78100
C826        C  0.73395457  0.56468855  0.30868991     0.78200
C827        C  0.73369982  0.67538136  0.31649885     0.78100
C828        C  0.73371267  0.55840137  0.43362163     0.78000
O829        O  0.89379565  0.65970050  0.31477073    -0.71100
O830        O  0.84038738  0.60628834  0.43532595    -0.71300
O831        O  0.91610377  0.68186667  0.40623273    -0.71200
O832        O  0.81821893  0.58398588  0.34386419    -0.71200
O833        O  0.86390123  0.55975734  0.32103617    -0.71100
O834        O  0.94032565  0.63617702  0.42906219    -0.71200
O835        O  0.85617709  0.55211204  0.41866700    -0.71100
O836        O  0.94796694  0.64390580  0.33143088    -0.71300
V837        V  0.86741655  0.63267048  0.37504861     1.35200
V838        V  0.90257412  0.59750646  0.37504889     1.35200
C839        C  0.93538234  0.66934196  0.30867161     0.78100
C840        C  0.83074486  0.56469875  0.44142622     0.78200
C841        C  0.94168931  0.67538638  0.43360565     0.78100
C842        C  0.82469523  0.55839740  0.31649261     0.78000
O843        O  0.63616318  0.94035216  0.07103249    -0.71100
O844        O  0.55973713  0.86393450  0.17905834    -0.71300
O845        O  0.64388747  0.94799728  0.16866293    -0.71200
O846        O  0.55209538  0.85620556  0.08142641    -0.71200
O847        O  0.60626482  0.84040837  0.06477177    -0.71100
O848        O  0.65967545  0.89381959  0.18532674    -0.71200
O849        O  0.58395605  0.81824259  0.15623383    -0.71100
O850        O  0.68184313  0.91612027  0.09386457    -0.71300
V851        V  0.59748944  0.90260396  0.12504473     1.35200
V852        V  0.63264464  0.86743753  0.12504958     1.35200
C853        C  0.67536828  0.94171023  0.06649143     0.78100
C854        C  0.55837165  0.82472425  0.18360472     0.78200
C855        C  0.66931908  0.93540954  0.19142461     0.78100
C856        C  0.56467871  0.83076840  0.05867002     0.78000
C857        C  0.97023684  0.71385596  0.46855938     0.03000
C858        C  0.96850351  0.75695602  0.47048089     0.02900
C859        C  0.50004162  0.79324891  0.00003541    -0.17600
C860        C  0.53157837  0.78849285  0.02959454     0.03000
C861        C  0.52984411  0.74365903  0.03151759     0.02900
C862        C  0.00004211  0.70804519  0.00003823    -0.17600
H863        H  0.00004226  0.67528034  0.50004024     0.05000
H864        H  0.50004048  0.82604323  0.00003413     0.05000
C865        C  0.97021562  0.75645160  0.28151749     0.03000
C866        C  0.96848202  0.71161792  0.27959571     0.02900
C867        C  0.00001849  0.70686183  0.25003775    -0.17600
C868        C  0.53155654  0.74315414  0.22048202     0.03000
C869        C  0.52982349  0.78625475  0.21855941     0.02900
C870        C  0.50001833  0.79206550  0.25003738    -0.17600
H871        H  0.50001858  0.82483072  0.25003792     0.05000
H872        H  0.00001898  0.67406709  0.25003798     0.05000
O873        O  0.58395419  0.76579056  0.09386187    -0.71100
O874        O  0.68183508  0.76579110  0.15624311    -0.70700
O875        O  0.65967971  0.76593388  0.06478044    -0.71200
O876        O  0.60624996  0.76592196  0.18532575    -0.71200
O877        O  0.55208326  0.69596412  0.16865187    -0.71100
O878        O  0.64389768  0.69597136  0.08144337    -0.71200
O879        O  0.63615120  0.69588311  0.17907083    -0.71100
O880        O  0.55974996  0.69588811  0.07102320    -0.71300
V881        V  0.63263984  0.76528024  0.12505244     1.35200
V882        V  0.59748879  0.69496285  0.12504761     1.35200
C883        C  0.55838205  0.73373173  0.06647982     0.78100
C884        C  0.67535472  0.73372691  0.18361831     0.78200
C885        C  0.66932899  0.73399013  0.05868614     0.78100
C886        C  0.56466215  0.73397967  0.19141420     0.78000
O887        O  0.85615586  0.80413153  0.33144056    -0.71100
O888        O  0.94797346  0.80414436  0.41865122    -0.71300
O889        O  0.94030586  0.80421986  0.32102214    -0.71200
O890        O  0.86390322  0.80422089  0.42906805    -0.71200
O891        O  0.81822183  0.73431138  0.40624485    -0.71100
O892        O  0.91610388  0.73431733  0.34386099    -0.71200
O893        O  0.89380985  0.73418508  0.43532600    -0.71100
O894        O  0.84037511  0.73416908  0.31478141    -0.71300
V895        V  0.90256612  0.80514274  0.37504577     1.35200
V896        V  0.86741771  0.73482506  0.37505293     1.35200
C897        C  0.83072498  0.76611199  0.30868556     0.78100
C898        C  0.93539672  0.76612894  0.44141379     0.78200
C899        C  0.94167567  0.76637722  0.31647898     0.78100
C900        C  0.82470062  0.76637597  0.43361775     0.78000
C901        C  0.71160507  0.74316288  0.02961553     0.03000
C902        C  0.75643443  0.78625715  0.03154001     0.02900
C903        C  0.79204705  0.79206695  0.00005993    -0.17600
C904        C  0.78623744  0.75645403  0.46857816     0.03000
C905        C  0.74314287  0.71162430  0.47050134     0.02900
C906        C  0.70685261  0.70687161  0.50005806    -0.17600
H907        H  0.67406044  0.67407871  0.50005708     0.05000
H908        H  0.82480802  0.82482854  0.00006114     0.05000
C909        C  0.75691132  0.78847728  0.22050211     0.03000
C910        C  0.71381703  0.74364817  0.21857875     0.02900
C911        C  0.70800719  0.70803443  0.25005964    -0.17600
C912        C  0.74362045  0.71384420  0.28153932     0.03000
C913        C  0.78844915  0.75693832  0.27961527     0.02900
C914        C  0.79320207  0.79323015  0.25005852    -0.17600
H915        H  0.82599316  0.82602173  0.25005781     0.05000
H916        H  0.67524612  0.67527277  0.25006041     0.05000
C917        C  0.71159211  0.96850954  0.22050245     0.03000
C918        C  0.75642319  0.97024327  0.21858161     0.02900
C919        C  0.79203546  0.50004546  0.25006119    -0.17600
C920        C  0.78622586  0.52985073  0.28153971     0.03000
C921        C  0.74312784  0.53158421  0.27961859     0.02900
C922        C  0.70683658  0.00004665  0.25006174    -0.17600
H923        H  0.67404397  0.00004773  0.25006209     0.05000
H924        H  0.82479875  0.50004509  0.25005993     0.05000
C925        C  0.71383803  0.97025670  0.53153972     0.03000
C926        C  0.75693569  0.96852310  0.52962008     0.02900
C927        C  0.79322742  0.50006074  0.00006461    -0.17600
C928        C  0.78847209  0.53159807  0.97050379     0.03000
C929        C  0.74364064  0.52986352  0.96858131     0.02900
C930        C  0.70802864  0.00006203  0.50005997    -0.17600
H931        H  0.67526571  0.00006287  0.50005675     0.05000
H932        H  0.82601996  0.50005893  0.00006683     0.05000
O933        O  0.80419080  0.94033423  0.67908471    -0.71100
O934        O  0.80419833  0.86392601  0.57104763    -0.71300
O935        O  0.80411999  0.94799787  0.58145650    -0.71200
O936        O  0.80410517  0.85618254  0.66867534    -0.71200
O937        O  0.73414698  0.84040508  0.68533161    -0.71100
O938        O  0.73416531  0.89382862  0.56477918    -0.71200
O939        O  0.73429329  0.81824081  0.59387295    -0.71100
O940        O  0.73429240  0.91613041  0.65623953    -0.71300
V941        V  0.80511754  0.90259199  0.62506603     1.35200
V942        V  0.73480339  0.86744088  0.62505587     1.35200
C943        C  0.76634940  0.94170346  0.68362278     0.78100
C944        C  0.76635611  0.82472091  0.56649980     0.78200
C945        C  0.76610734  0.93541745  0.55869078     0.78100
C946        C  0.76608703  0.83075348  0.69143015     0.78000
O947        O  0.76590921  0.65969727  0.93533283    -0.71100
O948        O  0.76589500  0.60627816  0.81477986    -0.71300
O949        O  0.76576251  0.68186302  0.84387466    -0.71200
O950        O  0.76576860  0.58397479  0.90623914    -0.71200
O951        O  0.69587020  0.55976865  0.92908236    -0.71100
O952        O  0.69585874  0.63617544  0.82104390    -0.71200
O953        O  0.69594172  0.55210594  0.83145442    -0.71100
O954        O  0.69595074  0.64391810  0.91867151    -0.71300
V955        V  0.76525509  0.63266377  0.87505670     1.35200
V956        V  0.69494117  0.59751001  0.87506299     1.35200
C957        C  0.73396816  0.66934778  0.94142922     0.78100
C958        C  0.73395447  0.56468844  0.80868993     0.78200
C959        C  0.73369988  0.67538139  0.81649884     0.78100
C960        C  0.73371253  0.55840127  0.93362161     0.78000
O961        O  0.89379572  0.65970063  0.81477082    -0.71100
O962        O  0.84038732  0.60628834  0.93532592    -0.71300
O963        O  0.91610379  0.68186665  0.90623281    -0.71200
O964        O  0.81821898  0.58398606  0.84386415    -0.71200
O965        O  0.86390121  0.55975746  0.82103616    -0.71100
O966        O  0.94032570  0.63617702  0.92906223    -0.71200
O967        O  0.85617710  0.55211209  0.91866707    -0.71100
O968        O  0.94796690  0.64390577  0.83143084    -0.71300
V969        V  0.86741659  0.63267056  0.87504864     1.35200
V970        V  0.90257412  0.59750650  0.87504891     1.35200
C971        C  0.93538235  0.66934201  0.80867165     0.78100
C972        C  0.83074482  0.56469876  0.94142621     0.78200
C973        C  0.94168931  0.67538633  0.93360576     0.78100
C974        C  0.82469524  0.55839752  0.81649260     0.78000
O975        O  0.63616318  0.94035216  0.57103249    -0.71100
O976        O  0.55973701  0.86393436  0.67905826    -0.71300
O977        O  0.64388739  0.94799723  0.66866292    -0.71200
O978        O  0.55209541  0.85620554  0.58142631    -0.71200
O979        O  0.60626484  0.84040830  0.56477176    -0.71100
O980        O  0.65967532  0.89381950  0.68532674    -0.71200
O981        O  0.58395596  0.81824247  0.65623376    -0.71100
O982        O  0.68184314  0.91612027  0.59386459    -0.71300
V983        V  0.59748939  0.90260389  0.62504469     1.35200
V984        V  0.63264460  0.86743745  0.62504956     1.35200
C985        C  0.67536826  0.94171021  0.56649140     0.78100
C986        C  0.55837156  0.82472415  0.68360466     0.78200
C987        C  0.66931901  0.93540944  0.69142460     0.78100
C988        C  0.56467871  0.83076834  0.55867000     0.78000
C989        C  0.97023680  0.71385595  0.96855943     0.03000
C990        C  0.96850356  0.75695602  0.97048082     0.02900
C991        C  0.50004149  0.79324884  0.50003562    -0.17600
C992        C  0.53157836  0.78849280  0.52959460     0.03000
C993        C  0.52984410  0.74365900  0.53151760     0.02900
C994        C  0.00004211  0.70804530  0.50003819    -0.17600
H995        H  0.00004223  0.67528089  0.00004038     0.05000
H996        H  0.50004030  0.82604315  0.50003448     0.05000
C997        C  0.97021555  0.75645153  0.78151746     0.03000
C998        C  0.96848204  0.71161793  0.77959572     0.02900
C999        C  0.00001844  0.70686186  0.75003772    -0.17600
C1000       C  0.53155655  0.74315414  0.72048197     0.03000
C1001       C  0.52982348  0.78625469  0.71855941     0.02900
C1002       C  0.50001831  0.79206554  0.75003736    -0.17600
H1003       H  0.50001853  0.82483036  0.75003789     0.05000
H1004       H  0.00001891  0.67406685  0.75003792     0.05000
O1005       O  0.58395435  0.76579058  0.59386176    -0.71100
O1006       O  0.68183509  0.76579110  0.65624313    -0.70700
O1007       O  0.65967978  0.76593396  0.56478039    -0.71200
O1008       O  0.60625003  0.76592198  0.68532570    -0.71200
O1009       O  0.55208332  0.69596409  0.66865189    -0.71100
O1010       O  0.64389775  0.69597144  0.58144334    -0.71200
O1011       O  0.63615118  0.69588308  0.67907079    -0.71100
O1012       O  0.55974989  0.69588802  0.57102322    -0.71300
V1013       V  0.63263991  0.76528025  0.62505241     1.35200
V1014       V  0.59748881  0.69496283  0.62504758     1.35200
C1015       C  0.55838209  0.73373169  0.56647979     0.78100
C1016       C  0.67535467  0.73372683  0.68361830     0.78200
C1017       C  0.66932904  0.73399017  0.55868609     0.78100
C1018       C  0.56466217  0.73397962  0.69141417     0.78000
O1019       O  0.85615599  0.80413154  0.83144047    -0.71100
O1020       O  0.94797352  0.80414444  0.91865125    -0.71300
O1021       O  0.94030594  0.80421980  0.82102217    -0.71200
O1022       O  0.86390323  0.80422092  0.92906798    -0.71200
O1023       O  0.81822183  0.73431137  0.90624485    -0.71100
O1024       O  0.91610375  0.73431722  0.84386093    -0.71200
O1025       O  0.89380992  0.73418511  0.93532593    -0.71100
O1026       O  0.84037503  0.73416901  0.81478139    -0.71300
V1027       V  0.90256619  0.80514275  0.87504574     1.35200
V1028       V  0.86741768  0.73482503  0.87505290     1.35200
C1029       C  0.83072500  0.76611201  0.80868555     0.78100
C1030       C  0.93539675  0.76612894  0.94141373     0.78200
C1031       C  0.94167560  0.76637713  0.81647893     0.78100
C1032       C  0.82470063  0.76637602  0.93361772     0.78000
C1033       C  0.71160511  0.74316291  0.52961551     0.03000
C1034       C  0.75643449  0.78625724  0.53153995     0.02900
C1035       C  0.79204706  0.79206705  0.50005986    -0.17600
C1036       C  0.78623737  0.75645395  0.96857814     0.03000
C1037       C  0.74314285  0.71162428  0.97050136     0.02900
C1038       C  0.70685227  0.70687131  0.00005806    -0.17600
H1039       H  0.67406160  0.67407992  0.00005710     0.05000
H1040       H  0.82480802  0.82482869  0.50006101     0.05000
C1041       C  0.75691138  0.78847723  0.72050201     0.03000
C1042       C  0.71381703  0.74364809  0.71857864     0.02900
C1043       C  0.70800729  0.70803441  0.75005956    -0.17600
C1044       C  0.74362049  0.71384427  0.78153934     0.03000
C1045       C  0.78844916  0.75693841  0.77961532     0.02900
C1046       C  0.79320191  0.79323000  0.75005849    -0.17600
H1047       H  0.82599395  0.82602256  0.75005781     0.05000
H1048       H  0.67524604  0.67527250  0.75006031     0.05000
C1049       C  0.71159204  0.96850944  0.72050247     0.03000
C1050       C  0.75642315  0.97024313  0.71858162     0.02900
C1051       C  0.79203549  0.50004556  0.75006113    -0.17600
C1052       C  0.78622580  0.52985073  0.78153974     0.03000
C1053       C  0.74312777  0.53158414  0.77961864     0.02900
C1054       C  0.70683684  0.00004657  0.75006175    -0.17600
H1055       H  0.67404293  0.00004766  0.75006216     0.05000
H1056       H  0.82479876  0.50004525  0.75005982     0.05000
loop_ 
_geom_bond_atom_site_label_1 
_geom_bond_atom_site_label_2 
_geom_bond_distance 
_geom_bond_site_symmetry_2 
_ccdc_geom_bond_type 
C1            C2   1.457       .  A
C1            C6   1.402       .  A
C1           C61   1.502       .  S
C2          C399   1.398       .  A
C2           C21   1.510       .  S
C3            C4   1.398       .  A
C3          C398   1.398   1_545  A
C3            H8   1.085       .  S
C4            C5   1.457       .  A
C4           C48   1.510       .  S
C5          C402   1.402       .  A
C5           C36   1.502       .  S
C6          C401   1.402   1_554  A
C6            H7   1.084       .  S
O9           V17   1.964       .  S
O9           C19   1.282       .  A
O10          V17   1.964       .  S
O10          C20   1.282       .  A
O11          V17   1.944       .  S
O11          C21   1.278       .  A
O12          V17   1.944       .  S
O12          C22   1.278       .  A
O13          V18   1.896       .  S
O13          C22   1.259       .  A
O14          V18   1.896       .  S
O14          C21   1.259       .  A
O15          V18   1.837       .  S
O15          C20   1.235       .  A
O16          V18   1.837       .  S
O16          C19   1.235       .  A
V17          V18   2.015       .  T
C19         C126   1.502       .  S
C20         C110   1.502       .  S
C22         C117   1.510       .  S
O23          V31   1.896       .  S
O23          C33   1.259       .  A
O24          V31   1.896       .  S
O24          C34   1.259       .  A
O25          V31   1.837       .  S
O25          C35   1.235       .  A
O26          V31   1.837       .  S
O26          C36   1.235       .  A
O27          V32   1.964       .  S
O27          C36   1.282       .  A
O28          V32   1.964       .  S
O28          C35   1.282       .  A
O29          V32   1.944       .  S
O29          C34   1.278       .  A
O30          V32   1.944       .  S
O30          C33   1.278       .  A
V31          V32   2.015       .  T
C33         C113   1.510       .  S
C34         C129   1.510       .  S
C35         C120   1.502       .  S
O37          V45   1.896       .  S
O37          C47   1.259       .  A
O38          V45   1.896       .  S
O38          C48   1.259       .  A
O39          V45   1.837       .  S
O39          C49   1.235       .  A
O40          V45   1.837       .  S
O40          C50   1.235       .  A
O41          V46   1.964       .  S
O41          C50   1.282       .  A
O42          V46   1.964       .  S
O42          C49   1.282       .  A
O43          V46   1.944       .  S
O43          C48   1.278       .  A
O44          V46   1.944       .  S
O44          C47   1.278       .  A
V45          V46   2.015       .  T
C47          C74   1.510       .  S
C49          C65   1.502       .  S
C50         C128   1.502       .  S
O51          V59   1.964       .  S
O51          C61   1.282       .  A
O52          V59   1.964       .  S
O52          C62   1.282       .  A
O53          V59   1.944       .  S
O53          C63   1.278       .  A
O54          V59   1.944       .  S
O54          C64   1.278       .  A
O55          V60   1.896       .  S
O55          C64   1.259       .  A
O56          V60   1.896       .  S
O56          C63   1.259       .  A
O57          V60   1.837       .  S
O57          C62   1.235       .  A
O58          V60   1.837       .  S
O58          C61   1.235       .  A
V59          V60   2.015       .  T
C62          C77   1.502       .  S
C63         C125   1.510       .  S
C64          C68   1.510       .  S
C65          C66   1.457       .  A
C65         C202   1.402       .  A
C66         C727   1.398       .  A
C66         C106   1.510       .  S
C67          C68   1.398       .  A
C67         C726   1.398   1_454  A
C67          H72   1.085       .  S
C68          C69   1.457       .  A
C69         C598   1.402       .  A
C69          C91   1.502       .  S
C70         C197   1.402   1_554  A
C70         C597   1.402       .  A
C70         H203   1.084       .  S
H71         C202   1.084       .  S
C73          C74   1.457       .  A
C73         C606   1.402       .  A
C73         C107   1.502       .  S
C74          C75   1.398       .  A
C75         C604   1.398       .  A
C75          H80   1.085       .  S
C76          C77   1.457       .  A
C76         C603   1.398       .  A
C76          C94   1.510       .  S
C77          C78   1.402       .  A
C78         C601   1.402   1_455  A
C78          H79   1.084       .  S
O81          V89   1.837       .  S
O81          C91   1.235       .  A
O82          V89   1.837       .  S
O82          C92   1.235       .  A
O83          V89   1.896       .  S
O83          C93   1.259       .  A
O84          V89   1.896       .  S
O84          C94   1.259       .  A
O85          V90   1.944       .  S
O85          C94   1.278       .  A
O86          V90   1.944       .  S
O86          C93   1.278       .  A
O87          V90   1.964       .  S
O87          C92   1.282       .  A
O88          V90   1.964       .  S
O88          C91   1.282       .  A
V89          V90   2.015       .  T
C92         C118   1.502       .  S
C93         C109   1.510       .  S
O95         V103   1.944       .  S
O95         C105   1.278       .  A
O96         V103   1.944       .  S
O96         C106   1.278       .  A
O97         V103   1.964       .  S
O97         C107   1.282       .  A
O98         V103   1.964       .  S
O98         C108   1.282       .  A
O99         V104   1.837       .  S
O99         C108   1.235       .  A
O100        V104   1.837       .  S
O100        C107   1.235       .  A
O101        V104   1.896       .  S
O101        C106   1.259       .  A
O102        V104   1.896       .  S
O102        C105   1.259       .  A
V103        V104   2.015       .  T
C105        C121   1.510       .  S
C108        C112   1.502       .  S
C109        C110   1.457       .  A
C109        C246   1.398       .  A
C110        C111   1.402       .  A
C111        C244   1.402   1_554  A
C111        H116   1.084       .  S
C112        C113   1.457       .  A
C112        C243   1.402       .  A
C113        C114   1.398       .  A
C114        C241   1.398       .  A
C114        H115   1.085       .  S
C117        C118   1.457       .  A
C117        C122   1.398       .  A
C118        C119   1.402       .  A
C119        C120   1.402       .  A
C119        H124   1.084       .  S
C120        C121   1.457       .  A
C121        C122   1.398       .  A
C122        H123   1.085       .  S
C125        C126   1.457       .  A
C125        C130   1.398       .  A
C126        C391   1.402       .  A
C127        C128   1.402       .  A
C127        C390   1.402   1_545  A
C127        H132   1.084       .  S
C128        C129   1.457       .  A
C129        C394   1.398       .  A
C130        C393   1.398       .  A
C130        H131   1.085       .  S
C133        C134   1.457       .  A
C133        C138   1.402       .  A
C133        C193   1.502       .  S
C134        C267   1.398       .  A
C134        C153   1.510       .  S
C135        C266   1.398   1_545  A
C135        C136   1.398   1_554  A
C135        H140   1.085       .  S
C136        C137   1.457       .  A
C136        C180   1.510       .  S
C137        C270   1.402   1_556  A
C137        C168   1.502       .  S
C138        C269   1.402       .  A
C138        H139   1.084       .  S
O141        V149   1.964       .  S
O141        C151   1.282       .  A
O142        V149   1.964       .  S
O142        C152   1.282       .  A
O143        V149   1.944       .  S
O143        C153   1.278       .  A
O144        V149   1.944       .  S
O144        C154   1.278       .  A
O145        V150   1.896       .  S
O145        C154   1.259       .  A
O146        V150   1.896       .  S
O146        C153   1.259       .  A
O147        V150   1.837       .  S
O147        C152   1.235       .  A
O148        V150   1.837       .  S
O148        C151   1.235       .  A
V149        V150   2.015       .  T
C151        C258   1.502       .  S
C152        C242   1.502       .  S
C154        C249   1.510       .  S
O155        V163   1.896       .  S
O155        C165   1.259       .  A
O156        V163   1.896       .  S
O156        C166   1.259       .  A
O157        V163   1.837       .  S
O157        C167   1.235       .  A
O158        V163   1.837       .  S
O158        C168   1.235       .  A
O159        V164   1.964       .  S
O159        C168   1.282       .  A
O160        V164   1.964       .  S
O160        C167   1.282       .  A
O161        V164   1.944       .  S
O161        C166   1.278       .  A
O162        V164   1.944       .  S
O162        C165   1.278       .  A
V163        V164   2.015       .  T
C165        C245   1.510       .  S
C166        C261   1.510       .  S
C167        C252   1.502       .  S
O169        V177   1.896       .  S
O169        C179   1.259       .  A
O170        V177   1.896       .  S
O170        C180   1.259       .  A
O171        V177   1.837       .  S
O171        C181   1.235       .  A
O172        V177   1.837       .  S
O172        C182   1.235       .  A
O173        V178   1.964       .  S
O173        C182   1.282       .  A
O174        V178   1.964       .  S
O174        C181   1.282       .  A
O175        V178   1.944       .  S
O175        C180   1.278       .  A
O176        V178   1.944       .  S
O176        C179   1.278       .  A
V177        V178   2.015       .  T
C179        C206   1.510       .  S
C181        C197   1.502       .  S
C182        C260   1.502       .  S
O183        V191   1.964       .  S
O183        C193   1.282       .  A
O184        V191   1.964       .  S
O184        C194   1.282       .  A
O185        V191   1.944       .  S
O185        C195   1.278       .  A
O186        V191   1.944       .  S
O186        C196   1.278       .  A
O187        V192   1.896       .  S
O187        C196   1.259       .  A
O188        V192   1.896       .  S
O188        C195   1.259       .  A
O189        V192   1.837       .  S
O189        C194   1.235       .  A
O190        V192   1.837       .  S
O190        C193   1.235       .  A
V191        V192   2.015       .  T
C194        C209   1.502       .  S
C195        C257   1.510       .  S
C196        C200   1.510       .  S
C197        C198   1.457       .  A
C198        C595   1.398   1_556  A
C198        C238   1.510       .  S
C199        C594   1.398   1_455  A
C199        C200   1.398       .  A
C199        H204   1.085       .  S
C200        C201   1.457       .  A
C201        C730   1.402       .  A
C201        C223   1.502       .  S
C202        C729   1.402       .  A
C205        C206   1.457       .  A
C205        C738   1.402       .  A
C205        C239   1.502       .  S
C206        C207   1.398       .  A
C207        C736   1.398       .  A
C207        H212   1.085       .  S
C208        C735   1.398       .  A
C208        C209   1.457       .  A
C208        C226   1.510       .  S
C209        C210   1.402       .  A
C210        C733   1.402   1_455  A
C210        H211   1.084       .  S
O213        V221   1.837       .  S
O213        C223   1.235       .  A
O214        V221   1.837       .  S
O214        C224   1.235       .  A
O215        V221   1.896       .  S
O215        C225   1.259       .  A
O216        V221   1.896       .  S
O216        C226   1.259       .  A
O217        V222   1.944       .  S
O217        C226   1.278       .  A
O218        V222   1.944       .  S
O218        C225   1.278       .  A
O219        V222   1.964       .  S
O219        C224   1.282       .  A
O220        V222   1.964       .  S
O220        C223   1.282       .  A
V221        V222   2.015       .  T
C224        C250   1.502       .  S
C225        C241   1.510       .  S
O227        V235   1.944       .  S
O227        C237   1.278       .  A
O228        V235   1.944       .  S
O228        C238   1.278       .  A
O229        V235   1.964       .  S
O229        C239   1.282       .  A
O230        V235   1.964       .  S
O230        C240   1.282       .  A
O231        V236   1.837       .  S
O231        C240   1.235       .  A
O232        V236   1.837       .  S
O232        C239   1.235       .  A
O233        V236   1.896       .  S
O233        C238   1.259       .  A
O234        V236   1.896       .  S
O234        C237   1.259       .  A
V235        V236   2.015       .  T
C237        C253   1.510       .  S
C240        C244   1.502       .  S
C241        C242   1.457       .  A
C242        C243   1.402       .  A
C243        H248   1.084       .  S
C244        C245   1.457       .  A
C245        C246   1.398   1_556  A
C246        H247   1.085       .  S
C249        C250   1.457       .  A
C249        C254   1.398       .  A
C250        C251   1.402       .  A
C251        C252   1.402       .  A
C251        H256   1.084       .  S
C252        C253   1.457       .  A
C253        C254   1.398       .  A
C254        H255   1.085       .  S
C257        C258   1.457       .  A
C257        C262   1.398       .  A
C258        C523   1.402       .  A
C259        C522   1.402   1_545  A
C259        C260   1.402       .  A
C259        H264   1.084       .  S
C260        C261   1.457       .  A
C261        C526   1.398       .  A
C262        C525   1.398       .  A
C262        H263   1.085       .  S
C265        C266   1.457       .  A
C265        C270   1.402   1_565  A
C265        C325   1.502       .  S
C266        C285   1.510       .  S
C267        C268   1.398       .  A
C267        H272   1.085       .  S
C268        C269   1.457       .  A
C268        C312   1.510       .  S
C269        C300   1.502       .  S
C270        H271   1.084       .  S
O273        V281   1.964       .  S
O273        C283   1.282       .  A
O274        V281   1.964       .  S
O274        C284   1.282       .  A
O275        V281   1.944       .  S
O275        C285   1.278       .  A
O276        V281   1.944       .  S
O276        C286   1.278       .  A
O277        V282   1.896       .  S
O277        C286   1.259       .  A
O278        V282   1.896       .  S
O278        C285   1.259       .  A
O279        V282   1.837       .  S
O279        C284   1.235       .  A
O280        V282   1.837       .  S
O280        C283   1.235       .  A
V281        V282   2.015       .  T
C283        C390   1.502       .  S
C284        C374   1.502       .  S
C286        C381   1.510       .  S
O287        V295   1.896       .  S
O287        C297   1.259       .  A
O288        V295   1.896       .  S
O288        C298   1.259       .  A
O289        V295   1.837       .  S
O289        C299   1.235       .  A
O290        V295   1.837       .  S
O290        C300   1.235       .  A
O291        V296   1.964       .  S
O291        C300   1.282       .  A
O292        V296   1.964       .  S
O292        C299   1.282       .  A
O293        V296   1.944       .  S
O293        C298   1.278       .  A
O294        V296   1.944       .  S
O294        C297   1.278       .  A
V295        V296   2.015       .  T
C297        C377   1.510       .  S
C298        C393   1.510       .  S
C299        C384   1.502       .  S
O301        V309   1.896       .  S
O301        C311   1.259       .  A
O302        V309   1.896       .  S
O302        C312   1.259       .  A
O303        V309   1.837       .  S
O303        C313   1.235       .  A
O304        V309   1.837       .  S
O304        C314   1.235       .  A
O305        V310   1.964       .  S
O305        C314   1.282       .  A
O306        V310   1.964       .  S
O306        C313   1.282       .  A
O307        V310   1.944       .  S
O307        C312   1.278       .  A
O308        V310   1.944       .  S
O308        C311   1.278       .  A
V309        V310   2.015       .  T
C311        C338   1.510       .  S
C313        C329   1.502       .  S
C314        C392   1.502       .  S
O315        V323   1.964       .  S
O315        C325   1.282       .  A
O316        V323   1.964       .  S
O316        C326   1.282       .  A
O317        V323   1.944       .  S
O317        C327   1.278       .  A
O318        V323   1.944       .  S
O318        C328   1.278       .  A
O319        V324   1.896       .  S
O319        C328   1.259       .  A
O320        V324   1.896       .  S
O320        C327   1.259       .  A
O321        V324   1.837       .  S
O321        C326   1.235       .  A
O322        V324   1.837       .  S
O322        C325   1.235       .  A
V323        V324   2.015       .  T
C326        C341   1.502       .  S
C327        C389   1.510       .  S
C328        C332   1.510       .  S
C329        C330   1.457       .  A
C329        C466   1.402       .  A
C330        C991   1.398       .  A
C330        C370   1.510       .  S
C331        C990   1.398   1_454  A
C331        C332   1.398       .  A
C331        H336   1.085       .  S
C332        C333   1.457       .  A
C333        C862   1.402       .  A
C333        C355   1.502       .  S
C334        C461   1.402   1_554  A
C334        C861   1.402       .  A
C334        H467   1.084       .  S
H335        C466   1.084       .  S
C337        C338   1.457       .  A
C337        C870   1.402       .  A
C337        C371   1.502       .  S
C338        C339   1.398       .  A
C339        C868   1.398       .  A
C339        H344   1.085       .  S
C340        C867   1.398       .  A
C340        C341   1.457       .  A
C340        C358   1.510       .  S
C341        C342   1.402       .  A
C342        C865   1.402   1_455  A
C342        H343   1.084       .  S
O345        V353   1.837       .  S
O345        C355   1.235       .  A
O346        V353   1.837       .  S
O346        C356   1.235       .  A
O347        V353   1.896       .  S
O347        C357   1.259       .  A
O348        V353   1.896       .  S
O348        C358   1.259       .  A
O349        V354   1.944       .  S
O349        C358   1.278       .  A
O350        V354   1.944       .  S
O350        C357   1.278       .  A
O351        V354   1.964       .  S
O351        C356   1.282       .  A
O352        V354   1.964       .  S
O352        C355   1.282       .  A
V353        V354   2.015       .  T
C356        C382   1.502       .  S
C357        C373   1.510       .  S
O359        V367   1.944       .  S
O359        C369   1.278       .  A
O360        V367   1.944       .  S
O360        C370   1.278       .  A
O361        V367   1.964       .  S
O361        C371   1.282       .  A
O362        V367   1.964       .  S
O362        C372   1.282       .  A
O363        V368   1.837       .  S
O363        C372   1.235       .  A
O364        V368   1.837       .  S
O364        C371   1.235       .  A
O365        V368   1.896       .  S
O365        C370   1.259       .  A
O366        V368   1.896       .  S
O366        C369   1.259       .  A
V367        V368   2.015       .  T
C369        C385   1.510       .  S
C372        C376   1.502       .  S
C373        C374   1.457       .  A
C373        C510   1.398       .  A
C374        C375   1.402       .  A
C375        C508   1.402   1_554  A
C375        H380   1.084       .  S
C376        C507   1.402       .  A
C376        C377   1.457       .  A
C377        C378   1.398       .  A
C378        C505   1.398       .  A
C378        H379   1.085       .  S
C381        C382   1.457       .  A
C381        C386   1.398       .  A
C382        C383   1.402       .  A
C383        C384   1.402       .  A
C383        H388   1.084       .  S
C384        C385   1.457       .  A
C385        C386   1.398       .  A
C386        H387   1.085       .  S
C389        C390   1.457       .  A
C389        C394   1.398   1_565  A
C391        C392   1.402       .  A
C391        H396   1.084       .  S
C392        C393   1.457       .  A
C394        H395   1.085       .  S
C397        C398   1.457       .  A
C397        C402   1.402   1_565  A
C397        C457   1.502       .  S
C398        C417   1.510       .  S
C399        C400   1.398   1_554  A
C399        H404   1.085       .  S
C400        C401   1.457       .  A
C400        C444   1.510       .  S
C401        C432   1.502       .  S
C402        H403   1.084       .  S
O405        V413   1.964       .  S
O405        C415   1.282       .  A
O406        V413   1.964       .  S
O406        C416   1.282       .  A
O407        V413   1.944       .  S
O407        C417   1.278       .  A
O408        V413   1.944       .  S
O408        C418   1.278       .  A
O409        V414   1.896       .  S
O409        C418   1.259       .  A
O410        V414   1.896       .  S
O410        C417   1.259       .  A
O411        V414   1.837       .  S
O411        C416   1.235       .  A
O412        V414   1.837       .  S
O412        C415   1.235       .  A
V413        V414   2.015       .  T
C415        C522   1.502       .  S
C416        C506   1.502       .  S
C418        C513   1.510       .  S
O419        V427   1.896       .  S
O419        C429   1.259       .  A
O420        V427   1.896       .  S
O420        C430   1.259       .  A
O421        V427   1.837       .  S
O421        C431   1.235       .  A
O422        V427   1.837       .  S
O422        C432   1.235       .  A
O423        V428   1.964       .  S
O423        C432   1.282       .  A
O424        V428   1.964       .  S
O424        C431   1.282       .  A
O425        V428   1.944       .  S
O425        C430   1.278       .  A
O426        V428   1.944       .  S
O426        C429   1.278       .  A
V427        V428   2.015       .  T
C429        C509   1.510       .  S
C430        C525   1.510       .  S
C431        C516   1.502       .  S
O433        V441   1.896       .  S
O433        C443   1.259       .  A
O434        V441   1.896       .  S
O434        C444   1.259       .  A
O435        V441   1.837       .  S
O435        C445   1.235       .  A
O436        V441   1.837       .  S
O436        C446   1.235       .  A
O437        V442   1.964       .  S
O437        C446   1.282       .  A
O438        V442   1.964       .  S
O438        C445   1.282       .  A
O439        V442   1.944       .  S
O439        C444   1.278       .  A
O440        V442   1.944       .  S
O440        C443   1.278       .  A
V441        V442   2.015       .  T
C443        C470   1.510       .  S
C445        C461   1.502       .  S
C446        C524   1.502       .  S
O447        V455   1.964       .  S
O447        C457   1.282       .  A
O448        V455   1.964       .  S
O448        C458   1.282       .  A
O449        V455   1.944       .  S
O449        C459   1.278       .  A
O450        V455   1.944       .  S
O450        C460   1.278       .  A
O451        V456   1.896       .  S
O451        C460   1.259       .  A
O452        V456   1.896       .  S
O452        C459   1.259       .  A
O453        V456   1.837       .  S
O453        C458   1.235       .  A
O454        V456   1.837       .  S
O454        C457   1.235       .  A
V455        V456   2.015       .  T
C458        C473   1.502       .  S
C459        C521   1.510       .  S
C460        C464   1.510       .  S
C461        C462   1.457       .  A
C462        C859   1.398   1_556  A
C462        C502   1.510       .  S
C463        C858   1.398   1_455  A
C463        C464   1.398       .  A
C463        H468   1.085       .  S
C464        C465   1.457       .  A
C465        C994   1.402       .  A
C465        C487   1.502       .  S
C466        C993   1.402       .  A
C469        C470   1.457       .  A
C469       C1002   1.402       .  A
C469        C503   1.502       .  S
C470        C471   1.398       .  A
C471       C1000   1.398       .  A
C471        H476   1.085       .  S
C472        C999   1.398       .  A
C472        C473   1.457       .  A
C472        C490   1.510       .  S
C473        C474   1.402       .  A
C474        C997   1.402   1_455  A
C474        H475   1.084       .  S
O477        V485   1.837       .  S
O477        C487   1.235       .  A
O478        V485   1.837       .  S
O478        C488   1.235       .  A
O479        V485   1.896       .  S
O479        C489   1.259       .  A
O480        V485   1.896       .  S
O480        C490   1.259       .  A
O481        V486   1.944       .  S
O481        C490   1.278       .  A
O482        V486   1.944       .  S
O482        C489   1.278       .  A
O483        V486   1.964       .  S
O483        C488   1.282       .  A
O484        V486   1.964       .  S
O484        C487   1.282       .  A
V485        V486   2.015       .  T
C488        C514   1.502       .  S
C489        C505   1.510       .  S
O491        V499   1.944       .  S
O491        C501   1.278       .  A
O492        V499   1.944       .  S
O492        C502   1.278       .  A
O493        V499   1.964       .  S
O493        C503   1.282       .  A
O494        V499   1.964       .  S
O494        C504   1.282       .  A
O495        V500   1.837       .  S
O495        C504   1.235       .  A
O496        V500   1.837       .  S
O496        C503   1.235       .  A
O497        V500   1.896       .  S
O497        C502   1.259       .  A
O498        V500   1.896       .  S
O498        C501   1.259       .  A
V499        V500   2.015       .  T
C501        C517   1.510       .  S
C504        C508   1.502       .  S
C505        C506   1.457       .  A
C506        C507   1.402       .  A
C507        H512   1.084       .  S
C508        C509   1.457       .  A
C509        C510   1.398   1_556  A
C510        H511   1.085       .  S
C513        C514   1.457       .  A
C513        C518   1.398       .  A
C514        C515   1.402       .  A
C515        C516   1.402       .  A
C515        H520   1.084       .  S
C516        C517   1.457       .  A
C517        C518   1.398       .  A
C518        H519   1.085       .  S
C521        C522   1.457       .  A
C521        C526   1.398   1_565  A
C523        C524   1.402       .  A
C523        H528   1.084       .  S
C524        C525   1.457       .  A
C526        H527   1.085       .  S
C529        C530   1.457       .  A
C529        C534   1.402       .  A
C529        C589   1.502       .  S
C530        C927   1.398       .  A
C530        C549   1.510       .  S
C531        C926   1.398   1_545  A
C531        C532   1.398       .  A
C531        H536   1.085       .  S
C532        C533   1.457       .  A
C532        C576   1.510       .  S
C533        C930   1.402       .  A
C533        C564   1.502       .  S
C534        C929   1.402   1_554  A
C534        H535   1.084       .  S
O537        V545   1.964       .  S
O537        C547   1.282       .  A
O538        V545   1.964       .  S
O538        C548   1.282       .  A
O539        V545   1.944       .  S
O539        C549   1.278       .  A
O540        V545   1.944       .  S
O540        C550   1.278       .  A
O541        V546   1.896       .  S
O541        C550   1.259       .  A
O542        V546   1.896       .  S
O542        C549   1.259       .  A
O543        V546   1.837       .  S
O543        C548   1.235       .  A
O544        V546   1.837       .  S
O544        C547   1.235       .  A
V545        V546   2.015       .  T
C547        C654   1.502       .  S
C548        C638   1.502       .  S
C550        C645   1.510       .  S
O551        V559   1.896       .  S
O551        C561   1.259       .  A
O552        V559   1.896       .  S
O552        C562   1.259       .  A
O553        V559   1.837       .  S
O553        C563   1.235       .  A
O554        V559   1.837       .  S
O554        C564   1.235       .  A
O555        V560   1.964       .  S
O555        C564   1.282       .  A
O556        V560   1.964       .  S
O556        C563   1.282       .  A
O557        V560   1.944       .  S
O557        C562   1.278       .  A
O558        V560   1.944       .  S
O558        C561   1.278       .  A
V559        V560   2.015       .  T
C561        C641   1.510       .  S
C562        C657   1.510       .  S
C563        C648   1.502       .  S
O565        V573   1.896       .  S
O565        C575   1.259       .  A
O566        V573   1.896       .  S
O566        C576   1.259       .  A
O567        V573   1.837       .  S
O567        C577   1.235       .  A
O568        V573   1.837       .  S
O568        C578   1.235       .  A
O569        V574   1.964       .  S
O569        C578   1.282       .  A
O570        V574   1.964       .  S
O570        C577   1.282       .  A
O571        V574   1.944       .  S
O571        C576   1.278       .  A
O572        V574   1.944       .  S
O572        C575   1.278       .  A
V573        V574   2.015       .  T
C575        C602   1.510       .  S
C577        C593   1.502       .  S
C578        C656   1.502       .  S
O579        V587   1.964       .  S
O579        C589   1.282       .  A
O580        V587   1.964       .  S
O580        C590   1.282       .  A
O581        V587   1.944       .  S
O581        C591   1.278       .  A
O582        V587   1.944       .  S
O582        C592   1.278       .  A
O583        V588   1.896       .  S
O583        C592   1.259       .  A
O584        V588   1.896       .  S
O584        C591   1.259       .  A
O585        V588   1.837       .  S
O585        C590   1.235       .  A
O586        V588   1.837       .  S
O586        C589   1.235       .  A
V587        V588   2.015       .  T
C590        C605   1.502       .  S
C591        C653   1.510       .  S
C592        C596   1.510       .  S
C593        C594   1.457       .  A
C593        C730   1.402   1_655  A
C594        C634   1.510       .  S
C595        C596   1.398       .  A
C595        H600   1.085       .  S
C596        C597   1.457       .  A
C597        C619   1.502       .  S
C598        C725   1.402   1_454  A
C598        H731   1.084       .  S
H599        C730   1.084       .  S
C601        C602   1.457       .  A
C601        C635   1.502       .  S
C602        C603   1.398   1_655  A
C603        H608   1.085       .  S
C604        C605   1.457       .  A
C604        C622   1.510       .  S
C605        C606   1.402       .  A
C606        H607   1.084       .  S
O609        V617   1.837       .  S
O609        C619   1.235       .  A
O610        V617   1.837       .  S
O610        C620   1.235       .  A
O611        V617   1.896       .  S
O611        C621   1.259       .  A
O612        V617   1.896       .  S
O612        C622   1.259       .  A
O613        V618   1.944       .  S
O613        C622   1.278       .  A
O614        V618   1.944       .  S
O614        C621   1.278       .  A
O615        V618   1.964       .  S
O615        C620   1.282       .  A
O616        V618   1.964       .  S
O616        C619   1.282       .  A
V617        V618   2.015       .  T
C620        C646   1.502       .  S
C621        C637   1.510       .  S
O623        V631   1.944       .  S
O623        C633   1.278       .  A
O624        V631   1.944       .  S
O624        C634   1.278       .  A
O625        V631   1.964       .  S
O625        C635   1.282       .  A
O626        V631   1.964       .  S
O626        C636   1.282       .  A
O627        V632   1.837       .  S
O627        C636   1.235       .  A
O628        V632   1.837       .  S
O628        C635   1.235       .  A
O629        V632   1.896       .  S
O629        C634   1.259       .  A
O630        V632   1.896       .  S
O630        C633   1.259       .  A
V631        V632   2.015       .  T
C633        C649   1.510       .  S
C636        C640   1.502       .  S
C637        C638   1.457       .  A
C637        C774   1.398       .  A
C638        C639   1.402       .  A
C639        C772   1.402   1_554  A
C639        H644   1.084       .  S
C640        C771   1.402       .  A
C640        C641   1.457       .  A
C641        C642   1.398       .  A
C642        C769   1.398       .  A
C642        H643   1.085       .  S
C645        C646   1.457       .  A
C645        C650   1.398       .  A
C646        C647   1.402       .  A
C647        C648   1.402       .  A
C647        H652   1.084       .  S
C648        C649   1.457       .  A
C649        C650   1.398       .  A
C650        H651   1.085       .  S
C653        C654   1.457       .  A
C653        C658   1.398       .  A
C654        C919   1.402       .  A
C655        C918   1.402   1_545  A
C655        C656   1.402       .  A
C655        H660   1.084       .  S
C656        C657   1.457       .  A
C657        C922   1.398       .  A
C658        C921   1.398       .  A
C658        H659   1.085       .  S
C661        C662   1.457       .  A
C661        C666   1.402       .  A
C661        C721   1.502       .  S
C662        C795   1.398       .  A
C662        C681   1.510       .  S
C663        C794   1.398   1_545  A
C663        C664   1.398   1_554  A
C663        H668   1.085       .  S
C664        C665   1.457       .  A
C664        C708   1.510       .  S
C665        C798   1.402   1_556  A
C665        C696   1.502       .  S
C666        C797   1.402       .  A
C666        H667   1.084       .  S
O669        V677   1.964       .  S
O669        C679   1.282       .  A
O670        V677   1.964       .  S
O670        C680   1.282       .  A
O671        V677   1.944       .  S
O671        C681   1.278       .  A
O672        V677   1.944       .  S
O672        C682   1.278       .  A
O673        V678   1.896       .  S
O673        C682   1.259       .  A
O674        V678   1.896       .  S
O674        C681   1.259       .  A
O675        V678   1.837       .  S
O675        C680   1.235       .  A
O676        V678   1.837       .  S
O676        C679   1.235       .  A
V677        V678   2.015       .  T
C679        C786   1.502       .  S
C680        C770   1.502       .  S
C682        C777   1.510       .  S
O683        V691   1.896       .  S
O683        C693   1.259       .  A
O684        V691   1.896       .  S
O684        C694   1.259       .  A
O685        V691   1.837       .  S
O685        C695   1.235       .  A
O686        V691   1.837       .  S
O686        C696   1.235       .  A
O687        V692   1.964       .  S
O687        C696   1.282       .  A
O688        V692   1.964       .  S
O688        C695   1.282       .  A
O689        V692   1.944       .  S
O689        C694   1.278       .  A
O690        V692   1.944       .  S
O690        C693   1.278       .  A
V691        V692   2.015       .  T
C693        C773   1.510       .  S
C694        C789   1.510       .  S
C695        C780   1.502       .  S
O697        V705   1.896       .  S
O697        C707   1.259       .  A
O698        V705   1.896       .  S
O698        C708   1.259       .  A
O699        V705   1.837       .  S
O699        C709   1.235       .  A
O700        V705   1.837       .  S
O700        C710   1.235       .  A
O701        V706   1.964       .  S
O701        C710   1.282       .  A
O702        V706   1.964       .  S
O702        C709   1.282       .  A
O703        V706   1.944       .  S
O703        C708   1.278       .  A
O704        V706   1.944       .  S
O704        C707   1.278       .  A
V705        V706   2.015       .  T
C707        C734   1.510       .  S
C709        C725   1.502       .  S
C710        C788   1.502       .  S
O711        V719   1.964       .  S
O711        C721   1.282       .  A
O712        V719   1.964       .  S
O712        C722   1.282       .  A
O713        V719   1.944       .  S
O713        C723   1.278       .  A
O714        V719   1.944       .  S
O714        C724   1.278       .  A
O715        V720   1.896       .  S
O715        C724   1.259       .  A
O716        V720   1.896       .  S
O716        C723   1.259       .  A
O717        V720   1.837       .  S
O717        C722   1.235       .  A
O718        V720   1.837       .  S
O718        C721   1.235       .  A
V719        V720   2.015       .  T
C722        C737   1.502       .  S
C723        C785   1.510       .  S
C724        C728   1.510       .  S
C725        C726   1.457       .  A
C726        C766   1.510       .  S
C727        C728   1.398       .  A
C727        H732   1.085       .  S
C728        C729   1.457       .  A
C729        C751   1.502       .  S
C733        C734   1.457       .  A
C733        C767   1.502       .  S
C734        C735   1.398   1_655  A
C735        H740   1.085       .  S
C736        C737   1.457       .  A
C736        C754   1.510       .  S
C737        C738   1.402       .  A
C738        H739   1.084       .  S
O741        V749   1.837       .  S
O741        C751   1.235       .  A
O742        V749   1.837       .  S
O742        C752   1.235       .  A
O743        V749   1.896       .  S
O743        C753   1.259       .  A
O744        V749   1.896       .  S
O744        C754   1.259       .  A
O745        V750   1.944       .  S
O745        C754   1.278       .  A
O746        V750   1.944       .  S
O746        C753   1.278       .  A
O747        V750   1.964       .  S
O747        C752   1.282       .  A
O748        V750   1.964       .  S
O748        C751   1.282       .  A
V749        V750   2.015       .  T
C752        C778   1.502       .  S
C753        C769   1.510       .  S
O755        V763   1.944       .  S
O755        C765   1.278       .  A
O756        V763   1.944       .  S
O756        C766   1.278       .  A
O757        V763   1.964       .  S
O757        C767   1.282       .  A
O758        V763   1.964       .  S
O758        C768   1.282       .  A
O759        V764   1.837       .  S
O759        C768   1.235       .  A
O760        V764   1.837       .  S
O760        C767   1.235       .  A
O761        V764   1.896       .  S
O761        C766   1.259       .  A
O762        V764   1.896       .  S
O762        C765   1.259       .  A
V763        V764   2.015       .  T
C765        C781   1.510       .  S
C768        C772   1.502       .  S
C769        C770   1.457       .  A
C770        C771   1.402       .  A
C771        H776   1.084       .  S
C772        C773   1.457       .  A
C773        C774   1.398   1_556  A
C774        H775   1.085       .  S
C777        C778   1.457       .  A
C777        C782   1.398       .  A
C778        C779   1.402       .  A
C779        C780   1.402       .  A
C779        H784   1.084       .  S
C780        C781   1.457       .  A
C781        C782   1.398       .  A
C782        H783   1.085       .  S
C785        C786   1.457       .  A
C785        C790   1.398       .  A
C786       C1051   1.402       .  A
C787       C1050   1.402   1_545  A
C787        C788   1.402       .  A
C787        H792   1.084       .  S
C788        C789   1.457       .  A
C789       C1054   1.398       .  A
C790       C1053   1.398       .  A
C790        H791   1.085       .  S
C793        C794   1.457       .  A
C793        C798   1.402   1_565  A
C793        C853   1.502       .  S
C794        C813   1.510       .  S
C795        C796   1.398       .  A
C795        H800   1.085       .  S
C796        C797   1.457       .  A
C796        C840   1.510       .  S
C797        C828   1.502       .  S
C798        H799   1.084       .  S
O801        V809   1.964       .  S
O801        C811   1.282       .  A
O802        V809   1.964       .  S
O802        C812   1.282       .  A
O803        V809   1.944       .  S
O803        C813   1.278       .  A
O804        V809   1.944       .  S
O804        C814   1.278       .  A
O805        V810   1.896       .  S
O805        C814   1.259       .  A
O806        V810   1.896       .  S
O806        C813   1.259       .  A
O807        V810   1.837       .  S
O807        C812   1.235       .  A
O808        V810   1.837       .  S
O808        C811   1.235       .  A
V809        V810   2.015       .  T
C811        C918   1.502       .  S
C812        C902   1.502       .  S
C814        C909   1.510       .  S
O815        V823   1.896       .  S
O815        C825   1.259       .  A
O816        V823   1.896       .  S
O816        C826   1.259       .  A
O817        V823   1.837       .  S
O817        C827   1.235       .  A
O818        V823   1.837       .  S
O818        C828   1.235       .  A
O819        V824   1.964       .  S
O819        C828   1.282       .  A
O820        V824   1.964       .  S
O820        C827   1.282       .  A
O821        V824   1.944       .  S
O821        C826   1.278       .  A
O822        V824   1.944       .  S
O822        C825   1.278       .  A
V823        V824   2.015       .  T
C825        C905   1.510       .  S
C826        C921   1.510       .  S
C827        C912   1.502       .  S
O829        V837   1.896       .  S
O829        C839   1.259       .  A
O830        V837   1.896       .  S
O830        C840   1.259       .  A
O831        V837   1.837       .  S
O831        C841   1.235       .  A
O832        V837   1.837       .  S
O832        C842   1.235       .  A
O833        V838   1.964       .  S
O833        C842   1.282       .  A
O834        V838   1.964       .  S
O834        C841   1.282       .  A
O835        V838   1.944       .  S
O835        C840   1.278       .  A
O836        V838   1.944       .  S
O836        C839   1.278       .  A
V837        V838   2.015       .  T
C839        C866   1.510       .  S
C841        C857   1.502       .  S
C842        C920   1.502       .  S
O843        V851   1.964       .  S
O843        C853   1.282       .  A
O844        V851   1.964       .  S
O844        C854   1.282       .  A
O845        V851   1.944       .  S
O845        C855   1.278       .  A
O846        V851   1.944       .  S
O846        C856   1.278       .  A
O847        V852   1.896       .  S
O847        C856   1.259       .  A
O848        V852   1.896       .  S
O848        C855   1.259       .  A
O849        V852   1.837       .  S
O849        C854   1.235       .  A
O850        V852   1.837       .  S
O850        C853   1.235       .  A
V851        V852   2.015       .  T
C854        C869   1.502       .  S
C855        C917   1.510       .  S
C856        C860   1.510       .  S
C857        C858   1.457       .  A
C857        C994   1.402   1_655  A
C858        C898   1.510       .  S
C859        C860   1.398       .  A
C859        H864   1.085       .  S
C860        C861   1.457       .  A
C861        C883   1.502       .  S
C862        C989   1.402   1_454  A
C862        H995   1.084       .  S
H863        C994   1.084       .  S
C865        C866   1.457       .  A
C865        C899   1.502       .  S
C866        C867   1.398   1_655  A
C867        H872   1.085       .  S
C868        C869   1.457       .  A
C868        C886   1.510       .  S
C869        C870   1.402       .  A
C870        H871   1.084       .  S
O873        V881   1.837       .  S
O873        C883   1.235       .  A
O874        V881   1.837       .  S
O874        C884   1.235       .  A
O875        V881   1.896       .  S
O875        C885   1.259       .  A
O876        V881   1.896       .  S
O876        C886   1.259       .  A
O877        V882   1.944       .  S
O877        C886   1.278       .  A
O878        V882   1.944       .  S
O878        C885   1.278       .  A
O879        V882   1.964       .  S
O879        C884   1.282       .  A
O880        V882   1.964       .  S
O880        C883   1.282       .  A
V881        V882   2.015       .  T
C884        C910   1.502       .  S
C885        C901   1.510       .  S
O887        V895   1.944       .  S
O887        C897   1.278       .  A
O888        V895   1.944       .  S
O888        C898   1.278       .  A
O889        V895   1.964       .  S
O889        C899   1.282       .  A
O890        V895   1.964       .  S
O890        C900   1.282       .  A
O891        V896   1.837       .  S
O891        C900   1.235       .  A
O892        V896   1.837       .  S
O892        C899   1.235       .  A
O893        V896   1.896       .  S
O893        C898   1.259       .  A
O894        V896   1.896       .  S
O894        C897   1.259       .  A
V895        V896   2.015       .  T
C897        C913   1.510       .  S
C900        C904   1.502       .  S
C901        C902   1.457       .  A
C901       C1038   1.398       .  A
C902        C903   1.402       .  A
C903       C1036   1.402   1_554  A
C903        H908   1.084       .  S
C904       C1035   1.402       .  A
C904        C905   1.457       .  A
C905        C906   1.398       .  A
C906       C1033   1.398       .  A
C906        H907   1.085       .  S
C909        C910   1.457       .  A
C909        C914   1.398       .  A
C910        C911   1.402       .  A
C911        C912   1.402       .  A
C911        H916   1.084       .  S
C912        C913   1.457       .  A
C913        C914   1.398       .  A
C914        H915   1.085       .  S
C917        C918   1.457       .  A
C917        C922   1.398   1_565  A
C919        C920   1.402       .  A
C919        H924   1.084       .  S
C920        C921   1.457       .  A
C922        H923   1.085       .  S
C925        C926   1.457       .  A
C925        C930   1.402   1_565  A
C925        C985   1.502       .  S
C926        C945   1.510       .  S
C927        C928   1.398   1_554  A
C927        H932   1.085       .  S
C928        C929   1.457       .  A
C928        C972   1.510       .  S
C929        C960   1.502       .  S
C930        H931   1.084       .  S
O933        V941   1.964       .  S
O933        C943   1.282       .  A
O934        V941   1.964       .  S
O934        C944   1.282       .  A
O935        V941   1.944       .  S
O935        C945   1.278       .  A
O936        V941   1.944       .  S
O936        C946   1.278       .  A
O937        V942   1.896       .  S
O937        C946   1.259       .  A
O938        V942   1.896       .  S
O938        C945   1.259       .  A
O939        V942   1.837       .  S
O939        C944   1.235       .  A
O940        V942   1.837       .  S
O940        C943   1.235       .  A
V941        V942   2.015       .  T
C943       C1050   1.502       .  S
C944       C1034   1.502       .  S
C946       C1041   1.510       .  S
O947        V955   1.896       .  S
O947        C957   1.259       .  A
O948        V955   1.896       .  S
O948        C958   1.259       .  A
O949        V955   1.837       .  S
O949        C959   1.235       .  A
O950        V955   1.837       .  S
O950        C960   1.235       .  A
O951        V956   1.964       .  S
O951        C960   1.282       .  A
O952        V956   1.964       .  S
O952        C959   1.282       .  A
O953        V956   1.944       .  S
O953        C958   1.278       .  A
O954        V956   1.944       .  S
O954        C957   1.278       .  A
V955        V956   2.015       .  T
C957       C1037   1.510       .  S
C958       C1053   1.510       .  S
C959       C1044   1.502       .  S
O961        V969   1.896       .  S
O961        C971   1.259       .  A
O962        V969   1.896       .  S
O962        C972   1.259       .  A
O963        V969   1.837       .  S
O963        C973   1.235       .  A
O964        V969   1.837       .  S
O964        C974   1.235       .  A
O965        V970   1.964       .  S
O965        C974   1.282       .  A
O966        V970   1.964       .  S
O966        C973   1.282       .  A
O967        V970   1.944       .  S
O967        C972   1.278       .  A
O968        V970   1.944       .  S
O968        C971   1.278       .  A
V969        V970   2.015       .  T
C971        C998   1.510       .  S
C973        C989   1.502       .  S
C974       C1052   1.502       .  S
O975        V983   1.964       .  S
O975        C985   1.282       .  A
O976        V983   1.964       .  S
O976        C986   1.282       .  A
O977        V983   1.944       .  S
O977        C987   1.278       .  A
O978        V983   1.944       .  S
O978        C988   1.278       .  A
O979        V984   1.896       .  S
O979        C988   1.259       .  A
O980        V984   1.896       .  S
O980        C987   1.259       .  A
O981        V984   1.837       .  S
O981        C986   1.235       .  A
O982        V984   1.837       .  S
O982        C985   1.235       .  A
V983        V984   2.015       .  T
C986       C1001   1.502       .  S
C987       C1049   1.510       .  S
C988        C992   1.510       .  S
C989        C990   1.457       .  A
C990       C1030   1.510       .  S
C991        C992   1.398       .  A
C991        H996   1.085       .  S
C992        C993   1.457       .  A
C993       C1015   1.502       .  S
C997        C998   1.457       .  A
C997       C1031   1.502       .  S
C998        C999   1.398   1_655  A
C999       H1004   1.085       .  S
C1000      C1001   1.457       .  A
C1000      C1018   1.510       .  S
C1001      C1002   1.402       .  A
C1002      H1003   1.084       .  S
O1005      V1013   1.837       .  S
O1005      C1015   1.235       .  A
O1006      V1013   1.837       .  S
O1006      C1016   1.235       .  A
O1007      V1013   1.896       .  S
O1007      C1017   1.259       .  A
O1008      V1013   1.896       .  S
O1008      C1018   1.259       .  A
O1009      V1014   1.944       .  S
O1009      C1018   1.278       .  A
O1010      V1014   1.944       .  S
O1010      C1017   1.278       .  A
O1011      V1014   1.964       .  S
O1011      C1016   1.282       .  A
O1012      V1014   1.964       .  S
O1012      C1015   1.282       .  A
V1013      V1014   2.015       .  T
C1016      C1042   1.502       .  S
C1017      C1033   1.510       .  S
O1019      V1027   1.944       .  S
O1019      C1029   1.278       .  A
O1020      V1027   1.944       .  S
O1020      C1030   1.278       .  A
O1021      V1027   1.964       .  S
O1021      C1031   1.282       .  A
O1022      V1027   1.964       .  S
O1022      C1032   1.282       .  A
O1023      V1028   1.837       .  S
O1023      C1032   1.235       .  A
O1024      V1028   1.837       .  S
O1024      C1031   1.235       .  A
O1025      V1028   1.896       .  S
O1025      C1030   1.259       .  A
O1026      V1028   1.896       .  S
O1026      C1029   1.259       .  A
V1027      V1028   2.015       .  T
C1029      C1045   1.510       .  S
C1032      C1036   1.502       .  S
C1033      C1034   1.457       .  A
C1034      C1035   1.402       .  A
C1035      H1040   1.084       .  S
C1036      C1037   1.457       .  A
C1037      C1038   1.398   1_556  A
C1038      H1039   1.085       .  S
C1041      C1042   1.457       .  A
C1041      C1046   1.398       .  A
C1042      C1043   1.402       .  A
C1043      C1044   1.402       .  A
C1043      H1048   1.084       .  S
C1044      C1045   1.457       .  A
C1045      C1046   1.398       .  A
C1046      H1047   1.085       .  S
C1049      C1050   1.457       .  A
C1049      C1054   1.398   1_565  A
C1051      C1052   1.402       .  A
C1051      H1056   1.084       .  S
C1052      C1053   1.457       .  A
C1054      H1055   1.085       .  S
