geometry optimzed in LAMMPS
_audit_creation_date              2020-12-01 
_audit_creation_method            'lammps2cif' 
_symmetry_space_group_name_H-M    'P1' 
_symmetry_Int_Tables_number       1 
_symmetry_cell_setting            triclinic 
loop_ 
_symmetry_equiv_pos_as_xyz 
  x,y,z 
_cell_length_a                    40.75490033 
_cell_length_b                    40.584777185197176 
_cell_length_c                    31.90454742362895 
_cell_angle_alpha                 89.98629493181254 
_cell_angle_beta                  90.06919849680814 
_cell_angle_gamma                 120.25164797999274 
loop_ 
_atom_site_label 
_atom_site_type_symbol 
_atom_site_fract_x 
_atom_site_fract_y 
_atom_site_fract_z 
_atom_site_charge 
O1          O  0.59789029  0.68355799  0.30243155    -0.82300
C2          C  0.47257960  0.59692891  0.19462399     0.97100
O3          O  0.48913953  0.58484455  0.21804870    -0.71400
O4          O  0.56121190  0.61977884  0.20156515    -0.75000
Al5        Al  0.53410295  0.61046345  0.25127964     1.49000
C6          C  0.59484310  0.64620979  0.19583854     0.92400
O7          O  0.57504892  0.71795481  0.20101728    -0.81200
O8          O  0.50928560  0.68928333  0.29838400    -0.74700
Al9        Al  0.58396219  0.69813877  0.25126777     1.90100
O10         O  0.51606416  0.70279505  0.21347441    -0.73800
O11         O  0.46652393  0.61580366  0.28602703    -0.73700
O12         O  0.47699061  0.62957665  0.20034494    -0.79300
O13         O  0.50662072  0.59660733  0.30144172    -0.77500
O14         O  0.53798144  0.65612952  0.25055151    -1.13700
O15         O  0.57824608  0.62448069  0.28444651    -0.72800
C16         C  0.59697224  0.65240513  0.30851376     0.97900
C17         C  0.54637619  0.72097553  0.19252493     0.94300
Al18       Al  0.49584446  0.65922067  0.24965831     1.55600
O19         O  0.60843893  0.67709596  0.21645532    -0.77500
C20         C  0.47606814  0.59623949  0.30850725     0.98400
C21         C  0.54000369  0.71941403  0.30622881     0.93300
O22         O  0.56975033  0.72776857  0.28577220    -0.82800
O23         O  0.29783427  0.37747122  0.44847866    -0.82300
C24         C  0.37983356  0.50326329  0.05772787     0.97100
O25         O  0.39301323  0.48714396  0.03526063    -0.71400
O26         O  0.35781309  0.41490127  0.05170921    -0.75000
Al27       Al  0.36821584  0.44167710  0.50179424     1.49000
C28         C  0.33098404  0.38134990  0.05716472     0.92400
O29         O  0.25900007  0.40002571  0.04600337    -0.81200
O30         O  0.29062966  0.46636819  0.45066194    -0.74700
Al31       Al  0.28145939  0.39159544  0.99767169     1.90100
O32         O  0.27561640  0.45974918  0.03424143    -0.73800
O33         O  0.36259095  0.50881078  0.46522409    -0.73700
O34         O  0.34760730  0.49881241  0.05009831    -0.79300
O35         O  0.38356944  0.46961383  0.45154469    -0.77500
O36         O  0.32242777  0.43731624  0.50013977    -1.13700
O37         O  0.35597193  0.39747616  0.46936387    -0.72800
C38         C  0.32921116  0.37886514  0.44407982     0.97900
C39         C  0.25660744  0.42912823  0.05455704     0.94300
Al40       Al  0.31898754  0.47942034  0.50036499     1.55600
O41         O  0.30104123  0.36754728  0.03507123    -0.77500
C42         C  0.38284460  0.49966266  0.44367244     0.98400
C43         C  0.26200831  0.43535717  0.44010252     0.93300
O44         O  0.25293757  0.40505091  0.46010971    -0.82800
O45         O  0.07402102  0.37954671  0.30044090    -0.82300
C46         C  0.11317340  0.50544044  0.19291717     0.97100
O47         O  0.08393011  0.48774330  0.21527140    -0.71400
O48         O  0.04936958  0.41579389  0.19679658    -0.75000
Al49       Al  0.06452378  0.44222384  0.24767100     1.49000
C50         C  0.04439450  0.38301818  0.19023544     0.92400
O51         O  0.13224450  0.40322805  0.19974897    -0.81200
O52         O  0.16850589  0.46873457  0.29740589    -0.74700
Al53       Al  0.10319125  0.39375298  0.24975407     1.90100
O54         O  0.17573138  0.46271682  0.21222138    -0.73800
O55         O  0.13666441  0.50990378  0.28563358    -0.73700
O56         O  0.14162674  0.50181450  0.19947477    -0.79300
O57         O  0.07646054  0.46946394  0.29859702    -0.77500
O58         O  0.10678925  0.43951458  0.24868845    -1.13700
O59         O  0.03377582  0.39690789  0.27962344    -0.72800
C60         C  0.04297316  0.37899603  0.30482581     0.97900
C61         C  0.16392475  0.43228801  0.19124299     0.94300
Al62       Al  0.15187014  0.48218757  0.24869065     1.55600
O63         O  0.05844148  0.36857724  0.21438159    -0.77500
C64         C  0.10697873  0.49975764  0.30727682     0.98400
C65         C  0.16826312  0.43823151  0.30511073     0.93300
O66         O  0.14689148  0.40838483  0.28452517    -0.82800
O67         O  0.60083555  0.91050723  0.44879578    -0.82300
C68         C  0.47430723  0.86694563  0.05725840     0.97100
O69         O  0.49091148  0.89613472  0.03432907    -0.71400
O70         O  0.56253429  0.93178442  0.05259684    -0.75000
Al71       Al  0.53679895  0.91783255  0.50075003     1.49000
C72         C  0.59502417  0.93682180  0.06035455     0.92400
O73         O  0.57582837  0.84812166  0.04813924    -0.81200
O74         O  0.51129155  0.81543712  0.44903139    -0.74700
Al75       Al  0.58556152  0.87886905  0.99915994     1.90100
O76         O  0.51696458  0.80460103  0.03421356    -0.73800
O77         O  0.46935376  0.84591619  0.46345343    -0.73700
O78         O  0.47855445  0.83875970  0.05039318    -0.79300
O79         O  0.50991184  0.90599230  0.44964847    -0.77500
O80         O  0.54018021  0.87585190  0.49935599    -1.13700
O81         O  0.58190504  0.94965643  0.46916187    -0.72800
C82         C  0.60053555  0.94122030  0.44428490     0.97900
C83         C  0.54680589  0.81612266  0.05580717     0.94300
Al84       Al  0.49780503  0.83045572  0.49878199     1.55600
O85         O  0.61002010  0.92296183  0.03662858    -0.77500
C86         C  0.47937902  0.87557144  0.44156532     0.98400
C87         C  0.54193842  0.81650975  0.44038898     0.93300
O88         O  0.57157767  0.83709656  0.46166456    -0.82800
O89         O  0.91086896  0.29944608  0.44980748    -0.82300
C90         C  0.87205236  0.38440105  0.06050470     0.97100
O91         O  0.90168812  0.39707719  0.03854929    -0.71400
O92         O  0.93831109  0.36115151  0.04987141    -0.75000
Al93       Al  0.92068506  0.37278196  0.50226093     1.49000
C94         C  0.94219184  0.33273069  0.05581502     0.92400
O95         O  0.84998055  0.26399543  0.04781588    -0.81200
O96         O  0.81690985  0.29623046  0.45115483    -0.74700
Al97       Al  0.88008637  0.28465941  0.99854434     1.90100
O98         O  0.80727442  0.28015831  0.03460157    -0.73800
O99         O  0.84802298  0.36896482  0.46748285    -0.73700
O100        O  0.84306735  0.35288335  0.05168097    -0.79300
O101        O  0.90802621  0.39036718  0.45349634    -0.77500
O102        O  0.87802717  0.32720560  0.50109791    -1.13700
O103        O  0.94971511  0.35907700  0.46699576    -0.72800
C104        C  0.94127971  0.33065109  0.44400422     0.97900
C105        C  0.81834398  0.26123652  0.05568189     0.94300
Al106      Al  0.83297030  0.32468068  0.50152518     1.55600
O107        O  0.92383862  0.30262188  0.03449857    -0.77500
C108        C  0.87756642  0.39027941  0.44659799     0.98400
C109        C  0.81727869  0.26616595  0.44219988     0.93300
O110        O  0.83748152  0.25665312  0.46322386    -0.82800
O111        O  0.68320294  0.07521219  0.30065338    -0.82300
C112        C  0.59858863  0.11801496  0.19505823     0.97100
O113        O  0.58642243  0.08906557  0.21815420    -0.71400
O114        O  0.62080278  0.05159989  0.19898732    -0.75000
Al115      Al  0.61160539  0.06850782  0.24978312     1.49000
C116        C  0.64704047  0.04433543  0.19280614     0.92400
O117        O  0.71942709  0.13550421  0.20105588    -0.81200
O118        O  0.69150681  0.17242422  0.29826224    -0.74700
Al119      Al  0.69879112  0.10553394  0.25049905     1.90100
O120        O  0.70429373  0.17937415  0.21331048    -0.73800
O121        O  0.61850654  0.14175479  0.28670960    -0.73700
O122        O  0.63154344  0.14583179  0.20050185    -0.79300
O123        O  0.59822808  0.08159360  0.30087400    -0.77500
O124        O  0.65746414  0.11021973  0.24993168    -1.13700
O125        O  0.62456799  0.03666966  0.28120370    -0.72800
C126        C  0.65196423  0.04462135  0.30540305     0.97900
C127        C  0.72215994  0.16713620  0.19218322     0.94300
Al128      Al  0.66124487  0.15598193  0.24973946     1.55600
O129        O  0.67756209  0.06087057  0.21398152    -0.77500
C130        C  0.59889288  0.11233456  0.30896133     0.98400
C131        C  0.72078928  0.17082858  0.30683690     0.93300
O132        O  0.72841913  0.14864391  0.28674100    -0.82800
O133        O  0.90647968  0.60426302  0.29966414    -0.82300
C134        C  0.86830723  0.47518645  0.19836769     0.97100
O135        O  0.89677236  0.49268545  0.22195252    -0.71400
O136        O  0.93006998  0.56360034  0.19947419    -0.75000
Al137      Al  0.91578921  0.53986444  0.25149355     1.49000
C138        C  0.93387449  0.59539801  0.18975592     0.92400
O139        O  0.84619687  0.57648576  0.20057837    -0.81200
O140        O  0.81093753  0.51342644  0.29853821    -0.74700
Al141      Al  0.87647948  0.58780440  0.24972451     1.90100
O142        O  0.80414261  0.51654300  0.21297219    -0.73800
O143        O  0.84443870  0.47324157  0.29014235    -0.73700
O144        O  0.83993175  0.47920346  0.20332011    -0.79300
O145        O  0.90413640  0.51518831  0.30397659    -0.77500
O146        O  0.87326594  0.54223639  0.25086085    -1.13700
O147        O  0.94689579  0.58678429  0.28064495    -0.72800
C148        C  0.93738837  0.60487725  0.30502359     0.97900
C149        C  0.81526823  0.54667470  0.19179188     0.94300
Al150      Al  0.82856475  0.49919174  0.25126993     1.55600
O151        O  0.92021564  0.61119987  0.21251077    -0.77500
C152        C  0.87395183  0.48455094  0.31262129     0.98400
C153        C  0.81215068  0.54446074  0.30613414     0.93300
O154        O  0.83388360  0.57413766  0.28556721    -0.82800
O155        O  0.38015630  0.07318931  0.44971134    -0.82300
C156        C  0.50495698  0.11643320  0.05876711     0.97100
O157        O  0.48778690  0.08619022  0.03756445    -0.71400
O158        O  0.41570680  0.04836740  0.05241651    -0.75000
Al159      Al  0.44503867  0.06651430  0.50194926     1.49000
C160        C  0.38242411  0.04184656  0.05782931     0.92400
O161        O  0.40293359  0.13252262  0.04918875    -0.81200
O162        O  0.46859803  0.16809821  0.45090008    -0.74700
Al163      Al  0.39369905  0.10279658  0.99985611     1.90100
O164        O  0.46163918  0.17697600  0.03549382    -0.73800
O165        O  0.51227945  0.14016547  0.46567853    -0.73700
O166        O  0.50133086  0.14466916  0.05049784    -0.79300
O167        O  0.47350179  0.07971065  0.45213544    -0.77500
O168        O  0.44066669  0.10795060  0.50084376    -1.13700
O169        O  0.40142636  0.03536657  0.46830377    -0.72800
C170        C  0.38142336  0.04303084  0.44457565     0.97900
C171        C  0.43183559  0.16441387  0.05730880     0.94300
Al172      Al  0.48248770  0.15396979  0.50050746     1.55600
O173        O  0.36909909  0.05832579  0.03581215    -0.77500
C174        C  0.50358074  0.11055222  0.44445870     0.98400
C175        C  0.43809164  0.16726191  0.44254016     0.93300
O176        O  0.40847280  0.14658780  0.46378505    -0.82800
O177        O  0.68022745  0.60236482  0.45059519    -0.82300
C178        C  0.59861256  0.47455417  0.05461529     0.97100
O179        O  0.58560702  0.49088503  0.03215855    -0.71400
O180        O  0.62107634  0.56204420  0.05337803    -0.75000
Al181      Al  0.61015215  0.53753536  0.50389366     1.49000
C182        C  0.64872960  0.59430935  0.06258361     0.92400
O183        O  0.71924551  0.57775170  0.04727477    -0.81200
O184        O  0.68662824  0.51366894  0.44869757    -0.74700
Al185      Al  0.69770881  0.58817326  0.99952291     1.90100
O186        O  0.70360980  0.51889443  0.03279883    -0.73800
O187        O  0.61509277  0.47114655  0.46414756    -0.73700
O188        O  0.63125224  0.47973313  0.04788165    -0.79300
O189        O  0.59388151  0.51058648  0.45267233    -0.77500
O190        O  0.65567431  0.54155636  0.50067200    -1.13700
O191        O  0.62259847  0.58283609  0.47299737    -0.72800
C192        C  0.64905293  0.60173347  0.44737680     0.97900
C193        C  0.72202829  0.54868333  0.05460239     0.94300
Al194      Al  0.65907778  0.49948214  0.49882160     1.55600
O195        O  0.67774326  0.61056196  0.03903955    -0.77500
C196        C  0.59486750  0.48086207  0.44336763     0.98400
C197        C  0.71602948  0.54450931  0.43963946     0.93300
O198        O  0.72537748  0.57420666  0.46101846    -0.82800
O199        O  0.38202608  0.29959188  0.30067241    -0.82300
C200        C  0.50701875  0.38242582  0.19268386     0.97100
O201        O  0.49106542  0.39540750  0.21564707    -0.71400
O202        O  0.41958389  0.35885530  0.19597960    -0.75000
Al203      Al  0.44526570  0.37042065  0.24720695     1.49000
C204        C  0.38654853  0.33140229  0.18954906     0.92400
O205        O  0.40451999  0.26232774  0.20198871    -0.81200
O206        O  0.46968618  0.29301982  0.29994730    -0.74700
Al207      Al  0.39552410  0.28322203  0.25091703     1.90100
O208        O  0.46319203  0.27708781  0.21556847    -0.73800
O209        O  0.51204958  0.36614513  0.28560900    -0.73700
O210        O  0.50251915  0.34992111  0.19979482    -0.79300
O211        O  0.47158593  0.38563882  0.29824982    -0.77500
O212        O  0.44147601  0.32492234  0.24943986    -1.13700
O213        O  0.40014544  0.35716612  0.27825216    -0.72800
C214        C  0.38238629  0.33068500  0.30433059     0.97900
C215        C  0.43300514  0.25885191  0.19427435     0.94300
Al216      Al  0.48342407  0.32174226  0.25020054     1.55600
O217        O  0.37141214  0.30312844  0.21425375    -0.77500
C218        C  0.50185173  0.38585881  0.30698231     0.98400
C219        C  0.43877819  0.26321932  0.30817328     0.93300
O220        O  0.40927300  0.25442660  0.28706685    -0.82800
O221        O  0.06959787  0.68284241  0.44953037    -0.82300
C222        C  0.11077564  0.59850155  0.05668766     0.97100
O223        O  0.08191261  0.58563356  0.03328562    -0.71400
O224        O  0.04405492  0.61980132  0.04884360    -0.75000
Al225      Al  0.06213004  0.60962213  0.49945253     1.49000
C226        C  0.03752751  0.64651545  0.05527348     0.92400
O227        O  0.12913742  0.71839335  0.04938503    -0.81200
O228        O  0.16377643  0.68793982  0.44948655    -0.74700
Al229      Al  0.09963438  0.69836101  0.99945085     1.90100
O230        O  0.17316827  0.70434341  0.03487078    -0.73800
O231        O  0.13469883  0.61508587  0.46407656    -0.73700
O232        O  0.13884933  0.63123699  0.05018809    -0.79300
O233        O  0.07510056  0.59491694  0.44911344    -0.77500
O234        O  0.10372293  0.65559646  0.49939274    -1.13700
O235        O  0.03148444  0.62308014  0.46647748    -0.72800
C236        C  0.03931998  0.65151174  0.44374304     0.97900
C237        C  0.16127781  0.72209580  0.05681842     0.94300
Al238      Al  0.14916232  0.65924354  0.49913595     1.55600
O239        O  0.05491290  0.67750369  0.03500432    -0.77500
C240        C  0.10535177  0.59464990  0.44221303     0.98400
C241        C  0.16310569  0.71803622  0.44184095     0.93300
O242        O  0.14279598  0.72696267  0.46357325    -0.82800
O243        O  0.29672044  0.90893027  0.30188599    -0.82300
C244        C  0.37962557  0.86653568  0.19315349     0.97100
O245        O  0.39222079  0.89612479  0.21541159    -0.71400
O246        O  0.35646327  0.93199134  0.19849261    -0.75000
Al247      Al  0.36773795  0.91661744  0.24870541     1.49000
C248        C  0.32904966  0.93717011  0.19139971     0.92400
O249        O  0.25910417  0.84927142  0.20257378    -0.81200
O250        O  0.28925935  0.81346502  0.29936751    -0.74700
Al251      Al  0.28043708  0.87912593  0.25189506     1.90100
O252        O  0.27447103  0.80546612  0.21448114    -0.73800
O253        O  0.36177515  0.84377897  0.28612811    -0.73700
O254        O  0.34717578  0.83843738  0.20021346    -0.79300
O255        O  0.38342576  0.90451106  0.29902912    -0.77500
O256        O  0.32203033  0.87471611  0.25022675    -1.13700
O257        O  0.35489361  0.94823373  0.28132273    -0.72800
C258        C  0.32788245  0.93952143  0.30643675     0.97900
C259        C  0.25615122  0.81755264  0.19375454     0.94300
Al260      Al  0.31836086  0.82909699  0.25011268     1.55600
O261        O  0.30052743  0.92363562  0.21554534    -0.77500
C262        C  0.38260080  0.87369934  0.30720932     0.98400
C263        C  0.25981037  0.81460311  0.30821385     0.93300
O264        O  0.25139553  0.83603665  0.28787371    -0.82800
C265        C  0.20559416  0.79537072  0.35824485    -0.21800
C266        C  0.23486069  0.79012568  0.34244401    -0.09800
C267        C  0.23995903  0.76102491  0.35962313     0.29100
C268        C  0.21636881  0.73791001  0.39160664    -0.21800
C269        C  0.18728337  0.74319488  0.40765373    -0.09800
C270        C  0.18205809  0.77226594  0.39066714     0.29100
F271        F  0.15396664  0.77805485  0.40483115    -0.20300
H272        H  0.20099234  0.81749968  0.34561741     0.17400
H273        H  0.22117217  0.71584708  0.40405263     0.17400
F274        F  0.26747633  0.75438710  0.34534761    -0.20300
C275        C  0.23863774  0.76679345  0.13991947    -0.21800
C276        C  0.23159928  0.79401342  0.15844351    -0.09800
C277        C  0.20137827  0.79796408  0.14279980     0.29100
C278        C  0.17843026  0.77448588  0.10997154    -0.21800
C279        C  0.18557628  0.74718610  0.09153523    -0.09800
C280        C  0.21629132  0.74391834  0.10683583     0.29100
F281        F  0.22458095  0.71812013  0.09040032    -0.20300
H282        H  0.26186931  0.76329654  0.15090711     0.17400
H283        H  0.15515651  0.77782125  0.09881759     0.17400
F284        F  0.19347725  0.82388701  0.15967621    -0.20300
C285        C  0.53668901  0.45414162  0.39935998    -0.21800
C286        C  0.57153664  0.45669438  0.40835762    -0.09800
C287        C  0.58351679  0.43585782  0.38389968     0.29100
C288        C  0.56081720  0.41287132  0.35098637    -0.21800
C289        C  0.52568678  0.41002306  0.34209207    -0.09800
C290        C  0.51375993  0.43085606  0.36692717     0.29100
F291        F  0.47980494  0.42867171  0.36029651    -0.20300
H292        H  0.52682123  0.46974724  0.41801991     0.17400
H293        H  0.57085321  0.39740780  0.33236905     0.17400
F294        F  0.61757292  0.43845323  0.39109591    -0.20300
C295        C  0.54848022  0.45751128  0.10785674    -0.21800
C296        C  0.57534472  0.45013975  0.08943050    -0.09800
C297        C  0.57967834  0.42011923  0.10499880     0.29100
C298        C  0.55723804  0.39788391  0.13847810    -0.21800
C299        C  0.53070680  0.40570033  0.15728182    -0.09800
C300        C  0.52652790  0.43579657  0.14148775     0.29100
F301        F  0.50077664  0.44401655  0.15798002    -0.20300
H302        H  0.54476009  0.48059984  0.09653236     0.17400
H303        H  0.56082454  0.37475871  0.14991361     0.17400
F304        F  0.60496579  0.41180592  0.08741172    -0.20300
C305        C  0.34425472  0.97689870  0.41688444    -0.21800
C306        C  0.36055779  0.01631021  0.41013373    -0.09800
C307        C  0.36144811  0.02969670  0.36929292     0.29100
C308        C  0.34893176  0.00419340  0.33546085    -0.21800
C309        C  0.33411728  0.96499875  0.34214356    -0.09800
C310        C  0.33065232  0.95132838  0.38325248     0.29100
F311        F  0.31718633  0.91369162  0.39052636    -0.20300
H312        H  0.34347763  0.96607271  0.44813931     0.17400
H313        H  0.35205956  0.01515781  0.30385871     0.17400
F314        F  0.37730725  0.06762026  0.36172839    -0.20300
C315        C  0.32981808  0.99293320  0.15684889    -0.21800
C316        C  0.33172053  0.95937689  0.15404231    -0.09800
C317        C  0.34413155  0.95091126  0.11674247     0.29100
C318        C  0.35759239  0.97705996  0.08413133    -0.21800
C319        C  0.35890903  0.01205416  0.08804410    -0.09800
C320        C  0.34349611  0.01941716  0.12378257     0.29100
F321        F  0.34509041  0.05344056  0.12834837    -0.20300
H322        H  0.32083149  0.00002417  0.18573485     0.17400
H323        H  0.36932961  0.97102204  0.05666813     0.17400
F324        F  0.34600759  0.91853736  0.11320174    -0.20300
C325        C  0.39779919  0.18667420  0.10468259    -0.21800
C326        C  0.43142479  0.18757310  0.09289948    -0.09800
C327        C  0.46498235  0.21102525  0.11539859     0.29100
C328        C  0.46495889  0.23353564  0.14846128    -0.21800
C329        C  0.43162307  0.23351475  0.15981499    -0.09800
C330        C  0.39784069  0.20964520  0.13755153     0.29100
F331        F  0.36486590  0.20848584  0.14729478    -0.20300
H332        H  0.37161072  0.16873267  0.08785237     0.17400
H333        H  0.49136058  0.25132024  0.16499106     0.17400
F334        F  0.49778930  0.21166758  0.10601369    -0.20300
C335        C  0.40368250  0.18915106  0.39504784    -0.21800
C336        C  0.43774856  0.19136029  0.40786378    -0.09800
C337        C  0.47179249  0.21716558  0.38726086     0.29100
C338        C  0.47160525  0.24027647  0.35514456    -0.21800
C339        C  0.43767666  0.23813236  0.34232832    -0.09800
C340        C  0.40352599  0.21217384  0.36242565     0.29100
F341        F  0.37016641  0.20959702  0.35124702    -0.20300
H342        H  0.37711701  0.16960442  0.41027958     0.17400
H343        H  0.49824177  0.25979017  0.33998626     0.17400
F344        F  0.50556305  0.22048532  0.39811168    -0.20300
C345        C  0.00088317  0.64998995  0.33543883    -0.21800
C346        C  0.96194967  0.62434131  0.34128975    -0.09800
C347        C  0.94816803  0.61174924  0.38190910     0.29100
C348        C  0.97344326  0.62248140  0.41567633    -0.21800
C349        C  0.01268284  0.64672485  0.40963215    -0.09800
C350        C  0.02606840  0.66175806  0.36949069     0.29100
F351        F  0.06378564  0.68504746  0.36253316    -0.20300
H352        H  0.01197653  0.65950675  0.30417090     0.17400
H353        H  0.96254835  0.61052864  0.44635186     0.17400
F354        F  0.91080087  0.58623438  0.38827251    -0.20300
C355        C  0.98587503  0.65095899  0.15142387    -0.21800
C356        C  0.95505567  0.61336800  0.15135243    -0.09800
C357        C  0.94848787  0.59010335  0.11617707     0.29100
C358        C  0.97431511  0.60288466  0.08341070    -0.21800
C359        C  0.00716221  0.63897225  0.08508239    -0.09800
C360        C  0.01205568  0.66384290  0.11822231     0.29100
F361        F  0.04369514  0.69885630  0.12044747    -0.20300
H362        H  0.99132940  0.66907561  0.17853244     0.17400
H363        H  0.96983825  0.58357817  0.05770722     0.17400
F364        F  0.91841423  0.55391142  0.11489211    -0.20300
C365        C  0.79556856  0.58179001  0.14247727    -0.21800
C366        C  0.79159372  0.54709672  0.15647421    -0.09800
C367        C  0.76484007  0.51311852  0.13639087     0.29100
C368        C  0.74285200  0.51407927  0.10315739    -0.21800
C369        C  0.74652292  0.54874585  0.08936920    -0.09800
C370        C  0.77313955  0.58269171  0.10962144     0.29100
F371        F  0.77776990  0.61686144  0.09763501    -0.20300
H372        H  0.81580865  0.60836147  0.15741045     0.17400
H373        H  0.72255888  0.48741124  0.08843480     0.17400
F374        F  0.76026538  0.47892811  0.14830081    -0.20300
C375        C  0.75516310  0.51141973  0.35169370    -0.21800
C376        C  0.78729897  0.54555583  0.33921129    -0.09800
C377        C  0.79521798  0.57983857  0.35895160     0.29100
C378        C  0.77179459  0.57951653  0.39128254    -0.21800
C379        C  0.73993047  0.54515662  0.40421879    -0.09800
C380        C  0.73161233  0.51108061  0.38350727     0.29100
F381        F  0.70105521  0.47706696  0.39424898    -0.20300
H382        H  0.74812612  0.48468359  0.33672745     0.17400
H383        H  0.77882901  0.60615700  0.40644950     0.17400
F384        F  0.82612976  0.61347823  0.34794818    -0.20300
C385        C  0.55028290  0.07865927  0.36442892    -0.21800
C386        C  0.57556425  0.11304292  0.34424140    -0.09800
C387        C  0.57766729  0.14704877  0.35807492     0.29100
C388        C  0.55462335  0.14626210  0.39111545    -0.21800
C389        C  0.52887940  0.11164479  0.41058946    -0.09800
C390        C  0.52717425  0.07783869  0.39703398     0.29100
F391        F  0.50352812  0.04386802  0.41563038    -0.20300
H392        H  0.54805743  0.05201237  0.35479836     0.17400
H393        H  0.55646854  0.17267552  0.40101939     0.17400
F394        F  0.60186489  0.18101428  0.33984440    -0.20300
C395        C  0.51481828  0.08730548  0.12187289    -0.21800
C396        C  0.52880105  0.11809699  0.09407062    -0.09800
C397        C  0.56522025  0.14972349  0.10032781     0.29100
C398        C  0.58774702  0.14986754  0.13355639    -0.21800
C399        C  0.57397289  0.11873176  0.16130875    -0.09800
C400        C  0.53684155  0.08766715  0.15548714     0.29100
F401        F  0.52165503  0.05739165  0.18199863    -0.20300
H402        H  0.48652754  0.06297860  0.11771311     0.17400
H403        H  0.61613359  0.17410468  0.13719988     0.17400
F404        F  0.57951493  0.17968513  0.07339529    -0.20300
C405        C  0.77086274  0.18608778  0.36146611    -0.21800
C406        C  0.74632227  0.19555766  0.34069424    -0.09800
C407        C  0.74595263  0.22869844  0.35306616     0.29100
C408        C  0.76925806  0.25142290  0.38567558    -0.21800
C409        C  0.79338882  0.24173426  0.40705126    -0.09800
C410        C  0.79403571  0.20872326  0.39444587     0.29100
F411        F  0.81686030  0.19808659  0.41395111    -0.20300
H412        H  0.77165267  0.16072330  0.35263571     0.17400
H413        H  0.76819236  0.27668190  0.39430477     0.17400
F414        F  0.72344694  0.23961448  0.33329056    -0.20300
C415        C  0.77630806  0.18572086  0.14190668    -0.21800
C416        C  0.74643267  0.19045760  0.15668704    -0.09800
C417        C  0.74003870  0.21790576  0.13723512     0.29100
C418        C  0.76327602  0.24024855  0.10437772    -0.21800
C419        C  0.79368099  0.23617138  0.09007152    -0.09800
C420        C  0.79988854  0.20844884  0.10917215     0.29100
F421        F  0.82849246  0.20301906  0.09611243    -0.20300
H422        H  0.78179145  0.16472878  0.15613724     0.17400
H423        H  0.75756842  0.26116659  0.09035165     0.17400
F424        F  0.71090632  0.22287618  0.14942861    -0.20300
C425        C  0.90755753  0.47273855  0.37124507    -0.21800
C426        C  0.87384548  0.46120330  0.34852241    -0.09800
C427        C  0.84095460  0.42685325  0.35978196     0.29100
C428        C  0.84226500  0.40433242  0.39220912    -0.21800
C429        C  0.87629907  0.41529640  0.41376488    -0.09800
C430        C  0.90889566  0.45004661  0.40338164     0.29100
F431        F  0.94195696  0.46239080  0.42463108    -0.20300
H432        H  0.93324368  0.49920820  0.36379805     0.17400
H433        H  0.81676183  0.37774391  0.39983108     0.17400
F434        F  0.80759779  0.41461673  0.33924210    -0.20300
C435        C  0.90377904  0.45614818  0.14957757    -0.21800
C436        C  0.86887046  0.45063180  0.16435488    -0.09800
C437        C  0.83509116  0.42258581  0.14529124     0.29100
C438        C  0.83637895  0.40085420  0.11200116    -0.21800
C439        C  0.87127847  0.40697510  0.09657143    -0.09800
C440        C  0.90511238  0.43480427  0.11589985     0.29100
F441        F  0.93950019  0.44120900  0.10264712    -0.20300
H442        H  0.93023783  0.47760716  0.16358757     0.17400
H443        H  0.80994823  0.37956975  0.09779160     0.17400
F444        F  0.80074610  0.41593396  0.15890176    -0.20300
C445        C  0.65564768  0.03197599  0.38123803    -0.21800
C446        C  0.64580167  0.01803502  0.34018104    -0.09800
C447        C  0.62468909  0.97830813  0.33364129     0.29100
C448        C  0.61273888  0.95315308  0.36776158    -0.21800
C449        C  0.62042190  0.96722762  0.40891576    -0.09800
C450        C  0.64247655  0.00685613  0.41541255     0.29100
F451        F  0.64999894  0.02130285  0.45488526    -0.20300
H452        H  0.67126591  0.06243563  0.38697496     0.17400
H453        H  0.59524223  0.92278324  0.36213596     0.17400
F454        F  0.61428412  0.96391541  0.29432013    -0.20300
C455        C  0.59174258  0.95309364  0.13347174    -0.21800
C456        C  0.61427936  0.95944011  0.09791611    -0.09800
C457        C  0.65123651  0.99139097  0.09679625     0.29100
C458        C  0.66373348  0.01844727  0.12946131    -0.21800
C459        C  0.63927210  0.01354558  0.16295746    -0.09800
C460        C  0.60391930  0.97980037  0.16553135     0.29100
F461        F  0.58005790  0.97368456  0.19808097    -0.20300
H462        H  0.56332480  0.92847798  0.13507428     0.17400
H463        H  0.69114030  0.04429888  0.12711779     0.17400
F464        F  0.67363059  0.99818237  0.06268896    -0.20300
C465        C  0.42167676  0.84066412  0.39577215    -0.21800
C466        C  0.45486055  0.87483974  0.40665643    -0.09800
C467        C  0.46405651  0.90824239  0.38401141     0.29100
C468        C  0.44030931  0.90738883  0.35195580    -0.21800
C469        C  0.40718265  0.87332827  0.34116346    -0.09800
C470        C  0.39811847  0.83978667  0.36323545     0.29100
F471        F  0.36602229  0.80641050  0.35421396    -0.20300
H472        H  0.41381795  0.81451131  0.41255023     0.17400
H473        H  0.44810473  0.93356123  0.33522104     0.17400
F474        F  0.49587702  0.94195243  0.39278136    -0.20300
C475        C  0.42219770  0.83164501  0.11002266    -0.21800
C476        C  0.44987747  0.86631479  0.09213187    -0.09800
C477        C  0.45412393  0.90064997  0.10801845     0.29100
C478        C  0.43127570  0.90018364  0.14082741    -0.21800
C479        C  0.40334395  0.86564023  0.15844802    -0.09800
C480        C  0.39885416  0.83119668  0.14262131     0.29100
F481        F  0.37251705  0.79719509  0.15913355    -0.20300
H482        H  0.41837325  0.80482782  0.09850002     0.17400
H483        H  0.43528388  0.92710834  0.15226299     0.17400
F484        F  0.48085174  0.93492668  0.09243137    -0.20300
C485        C  0.07283288  0.51616535  0.36080183    -0.21800
C486        C  0.10736252  0.52378771  0.34260263    -0.09800
C487        C  0.14147524  0.55432719  0.35847034     0.29100
C488        C  0.14072123  0.57694177  0.39122911    -0.21800
C489        C  0.10607399  0.56981560  0.40858758    -0.09800
C490        C  0.07205916  0.53881979  0.39326007     0.29100
F491        F  0.03792084  0.52994991  0.40990591    -0.20300
H492        H  0.04610399  0.49271615  0.34963066     0.17400
H493        H  0.16730675  0.60045074  0.40261609     0.17400
F494        F  0.17559133  0.56232250  0.34260617    -0.20300
C495        C  0.07888023  0.52025400  0.13839527    -0.21800
C496        C  0.11322403  0.52984006  0.15848135    -0.09800
C497        C  0.14680762  0.56237148  0.14519466     0.29100
C498        C  0.14584315  0.58476021  0.11230393    -0.21800
C499        C  0.11151347  0.57481529  0.09170914    -0.09800
C500        C  0.07792658  0.54222596  0.10525134     0.29100
F501        F  0.04394267  0.53165971  0.08692645    -0.20300
H502        H  0.05266353  0.49529043  0.14802999     0.17400
H503        H  0.17204671  0.60977297  0.10278807     0.17400
F504        F  0.18036732  0.57305267  0.16459335    -0.20300
C505        C  0.95297138  0.32518593  0.36835717    -0.21800
C506        C  0.96721411  0.33538896  0.40924036    -0.09800
C507        C  0.00681318  0.35532728  0.41558853     0.29100
C508        C  0.03163512  0.36649263  0.38134187    -0.21800
C509        C  0.01733580  0.35898766  0.34030352    -0.09800
C510        C  0.97778097  0.33742834  0.33405083     0.29100
F511        F  0.96314875  0.32975001  0.29466403    -0.20300
H512        H  0.92259077  0.31015913  0.36281437     0.17400
H513        H  0.06197750  0.38343944  0.38677433     0.17400
F514        F  0.02143261  0.36543676  0.45483713    -0.20300
C515        C  0.98527006  0.33034716  0.15888590    -0.21800
C516        C  0.02172562  0.36219811  0.15375908    -0.09800
C517        C  0.03336902  0.37916004  0.11420938     0.29100
C518        C  0.00783750  0.36640165  0.08093261    -0.21800
C519        C  0.97040652  0.33674354  0.08676374    -0.09800
C520        C  0.95947359  0.31761440  0.12536534     0.29100
F521        F  0.92301438  0.28955347  0.13180456    -0.20300
H522        H  0.97581748  0.31757874  0.18955161     0.17400
H523        H  0.01641271  0.38156194  0.05135184     0.17400
F524        F  0.06849108  0.41009204  0.10876649    -0.20300
C525        C  0.34669940  0.36027490  0.33335063    -0.21800
C526        C  0.36303207  0.33732671  0.33952091    -0.09800
C527        C  0.36480162  0.32508886  0.38026552     0.29100
C528        C  0.35194581  0.33719890  0.41437086    -0.21800
C529        C  0.33624394  0.36068264  0.40811803    -0.09800
C530        C  0.33309176  0.37162158  0.36729779     0.29100
F531        F  0.31977979  0.39585219  0.36066313    -0.20300
H532        H  0.34561645  0.37046119  0.30227395     0.17400
H533        H  0.35537813  0.32932276  0.44583411     0.17400
F534        F  0.38158960  0.30398638  0.38744340    -0.20300
C535        C  0.33097496  0.33195540  0.15721202    -0.21800
C536        C  0.36614919  0.33373299  0.15288552    -0.09800
C537        C  0.38541254  0.34484432  0.11450420     0.29100
C538        C  0.37114586  0.35667109  0.08193695    -0.21800
C539        C  0.33777464  0.35813367  0.08720591    -0.09800
C540        C  0.31684256  0.34443640  0.12443884     0.29100
F541        F  0.28508796  0.34668468  0.13059138    -0.20300
H542        H  0.31620851  0.32404245  0.18697331     0.17400
H543        H  0.38766875  0.36737968  0.05343501     0.17400
F544        F  0.41949022  0.34686175  0.10959704    -0.20300
C545        C  0.19186104  0.40320403  0.34936081    -0.21800
C546        C  0.19327701  0.43753862  0.33854971    -0.09800
C547        C  0.21873611  0.47110292  0.36024708     0.29100
C548        C  0.24105250  0.46990862  0.39269878    -0.21800
C549        C  0.23869419  0.43543639  0.40451144    -0.09800
C550        C  0.21435893  0.40208427  0.38197350     0.29100
F551        F  0.21273388  0.36859423  0.39090921    -0.20300
H552        H  0.17310979  0.37705949  0.33275155     0.17400
H553        H  0.25988026  0.49614714  0.40913685     0.17400
F554        F  0.22213024  0.50524700  0.35046155    -0.20300
C555        C  0.24648652  0.46056716  0.11599511    -0.21800
C556        C  0.23252463  0.42862410  0.08963046    -0.09800
C557        C  0.19592089  0.39751325  0.09696810     0.29100
C558        C  0.17371036  0.39877937  0.12994432    -0.21800
C559        C  0.18772402  0.43088364  0.15648542    -0.09800
C560        C  0.22469763  0.46170395  0.14917667     0.29100
F561        F  0.24017645  0.49304280  0.17416611    -0.20300
H562        H  0.27474905  0.48473292  0.11114061     0.17400
H563        H  0.14538242  0.37468879  0.13448780     0.17400
F564        F  0.18113089  0.36655436  0.07142555    -0.20300
C565        C  0.61998014  0.63875581  0.41938163    -0.21800
C566        C  0.64204159  0.62150291  0.41262169    -0.09800
C567        C  0.65264940  0.61863702  0.37150363     0.29100
C568        C  0.63959354  0.63088099  0.33768670    -0.21800
C569        C  0.61668264  0.64710893  0.34435615    -0.09800
C570        C  0.60773438  0.65190919  0.38555915     0.29100
F571        F  0.58452792  0.66626897  0.39283549    -0.20300
H572        H  0.61108554  0.64076764  0.45080388     0.17400
H573        H  0.64608888  0.62628380  0.30605013     0.17400
F574        F  0.67280129  0.60098243  0.36375113    -0.20300
C575        C  0.61325302  0.60156239  0.16791027    -0.21800
C576        C  0.61799707  0.63824530  0.16668905    -0.09800
C577        C  0.64012678  0.66350191  0.13468282     0.29100
C578        C  0.65368534  0.65041454  0.10182577    -0.21800
C579        C  0.64528410  0.61227637  0.10117196    -0.09800
C580        C  0.62676477  0.58867028  0.13568723     0.29100
F581        F  0.61937452  0.55207732  0.13683727    -0.20300
H582        H  0.59701077  0.58194445  0.19285777     0.17400
H583        H  0.66796311  0.66899206  0.07547007     0.17400
F584        F  0.64560509  0.69933846  0.13316992    -0.20300
C585        C  0.42028359  0.57907882  0.14257875    -0.21800
C586        C  0.44806338  0.57249558  0.16029180    -0.09800
C587        C  0.45259279  0.54266903  0.14441794     0.29100
C588        C  0.43025311  0.52049051  0.11111021    -0.21800
C589        C  0.40260120  0.52709930  0.09325807    -0.09800
C590        C  0.39740287  0.55634207  0.10961283     0.29100
F591        F  0.37094342  0.56358558  0.09316297    -0.20300
H592        H  0.41617374  0.60176986  0.15437273     0.17400
H593        H  0.43453707  0.49789311  0.09933930     0.17400
F594        F  0.47925301  0.53542128  0.16027925    -0.20300
C595        C  0.39499543  0.54691289  0.38682484    -0.21800
C596        C  0.40642314  0.52459582  0.40927551    -0.09800
C597        C  0.44046977  0.52601161  0.39830913     0.29100
C598        C  0.46272450  0.54953551  0.36581620    -0.21800
C599        C  0.45147550  0.57189631  0.34303526    -0.09800
C600        C  0.41706673  0.57012546  0.35366439     0.29100
F601        F  0.40457801  0.59051728  0.33207259    -0.20300
H602        H  0.36860391  0.54587898  0.39453127     0.17400
H603        H  0.48895928  0.55010361  0.35851063     0.17400
F604        F  0.45280500  0.50530767  0.41959026    -0.20300
C605        C  0.51390051  0.73552116  0.13533436    -0.21800
C606        C  0.54745051  0.74554069  0.15742412    -0.09800
C607        C  0.58102598  0.77905347  0.14596349     0.29100
C608        C  0.58078316  0.80188598  0.11296594    -0.21800
C609        C  0.54717791  0.79163733  0.09052570    -0.09800
C610        C  0.51363728  0.75797683  0.10225220     0.29100
F611        F  0.48024002  0.74668983  0.08216551    -0.20300
H612        H  0.48765416  0.70987284  0.14350864     0.17400
H613        H  0.60694429  0.82770558  0.10508363     0.17400
F614        F  0.61375662  0.79041702  0.16749312    -0.20300
C615        C  0.57545250  0.77154179  0.35864867    -0.21800
C616        C  0.54092143  0.74514369  0.33965447    -0.09800
C617        C  0.50718491  0.74323495  0.35333049     0.29100
C618        C  0.50806225  0.76678402  0.38564854    -0.21800
C619        C  0.54241929  0.79269244  0.40537318    -0.09800
C620        C  0.57630017  0.79501428  0.39132430     0.29100
F621        F  0.61024251  0.81982423  0.40903246    -0.20300
H622        H  0.60181526  0.77359340  0.34865585     0.17400
H623        H  0.48151232  0.76441522  0.39543582     0.17400
F624        F  0.47324243  0.71893369  0.33521113    -0.20300
O625        O  0.59878641  0.68447051  0.80185894    -0.82300
C626        C  0.47423008  0.59742773  0.69295479     0.97100
O627        O  0.49146462  0.58571872  0.71580843    -0.71400
O628        O  0.56393424  0.62173997  0.69999593    -0.75000
Al629      Al  0.53598198  0.61141489  0.74963049     1.49000
C630        C  0.59680075  0.64953160  0.69398653     0.92400
O631        O  0.57565353  0.71961948  0.70106882    -0.81200
O632        O  0.50919855  0.68923945  0.79753586    -0.74700
Al633      Al  0.58463225  0.69934970  0.75098872     1.90100
O634        O  0.51616963  0.70293178  0.71254552    -0.73800
O635        O  0.46762091  0.61567999  0.78479113    -0.73700
O636        O  0.47805455  0.62977013  0.69918365    -0.79300
O637        O  0.50770478  0.59628580  0.79953749    -0.77500
O638        O  0.53902613  0.65685293  0.74957786    -1.13700
O639        O  0.57992158  0.62570015  0.78330965    -0.72800
C640        C  0.59830818  0.65349210  0.80766198     0.97900
C641        C  0.54666359  0.72192595  0.69211227     0.94300
Al642      Al  0.49647084  0.65927918  0.74861578     1.55600
O643        O  0.60968027  0.67969105  0.71568716    -0.77500
C644        C  0.47713864  0.59588282  0.80688265     0.98400
C645        C  0.53976928  0.71932898  0.80598181     0.93300
O646        O  0.56975424  0.72796396  0.78596556    -0.82800
O647        O  0.29842315  0.37788043  0.94856525    -0.82300
C648        C  0.37945976  0.50278823  0.55774865     0.97100
O649        O  0.39243579  0.48661835  0.53510666    -0.71400
O650        O  0.35732173  0.41445913  0.55167375    -0.75000
Al651      Al  0.36893227  0.44216241  0.00180408     1.49000
C652        C  0.33055961  0.38088835  0.55721002     0.92400
O653        O  0.25831316  0.39917751  0.54630096    -0.81200
O654        O  0.29170624  0.46686480  0.94991299    -0.74700
Al655      Al  0.28080190  0.39098062  0.49780120     1.90100
O656        O  0.27500709  0.45898702  0.53509045    -0.73800
O657        O  0.36372831  0.50938848  0.96459659    -0.73700
O658        O  0.34709286  0.49821182  0.55064227    -0.79300
O659        O  0.38462271  0.47007924  0.95148877    -0.77500
O660        O  0.32318102  0.43788656  0.99986788    -1.13700
O661        O  0.35662904  0.39790463  0.96933439    -0.72800
C662        C  0.32975451  0.37918815  0.94418431     0.97900
C663        C  0.25609911  0.42830345  0.55529154     0.94300
Al664      Al  0.31984390  0.48004194  0.99970203     1.55600
O665        O  0.30057027  0.36697722  0.53514340    -0.77500
C666        C  0.38399903  0.50010830  0.94321000     0.98400
C667        C  0.26285915  0.43588704  0.93976653     0.93300
O668        O  0.25369354  0.40565005  0.95993344    -0.82800
O669        O  0.07431079  0.38053377  0.80114784    -0.82300
C670        C  0.11421940  0.50613198  0.69313213     0.97100
O671        O  0.08505853  0.48883841  0.71568552    -0.71400
O672        O  0.05012368  0.41677390  0.69717017    -0.75000
Al673      Al  0.06529894  0.44331480  0.74804157     1.49000
C674        C  0.04483329  0.38381753  0.69100333     0.92400
O675        O  0.13250316  0.40358668  0.70072341    -0.81200
O676        O  0.16880970  0.46940790  0.79820418    -0.74700
Al677      Al  0.10350953  0.39445692  0.75059626     1.90100
O678        O  0.17631703  0.46295000  0.71318114    -0.73800
O679        O  0.13745287  0.51098313  0.78582595    -0.73700
O680        O  0.14248951  0.50220108  0.69970676    -0.79300
O681        O  0.07726603  0.47062128  0.79893368    -0.77500
O682        O  0.10736887  0.44031544  0.74928673    -1.13700
O683        O  0.03432410  0.39811023  0.77992240    -0.72800
C684        C  0.04325413  0.38001258  0.80515738     0.97900
C685        C  0.16433660  0.43243796  0.69230214     0.94300
Al686      Al  0.15253192  0.48282382  0.74924009     1.55600
O687        O  0.05880174  0.36939822  0.71527870    -0.77500
C688        C  0.10778249  0.50097625  0.80747452     0.98400
C689        C  0.16845556  0.43886115  0.80598462     0.93300
O690        O  0.14712755  0.40902183  0.78537821    -0.82800
O691        O  0.60024932  0.90955019  0.94941833    -0.82300
C692        C  0.47458677  0.86793539  0.55604400     0.97100
O693        O  0.49114573  0.89715856  0.53315099    -0.71400
O694        O  0.56275840  0.93281178  0.55155487    -0.75000
Al695      Al  0.53647691  0.91682522  0.00185490     1.49000
C696        C  0.59516052  0.93770092  0.55952243     0.92400
O697        O  0.57600814  0.84912523  0.54754909    -0.81200
O698        O  0.51073411  0.81443480  0.94989669    -0.74700
Al699      Al  0.58591532  0.87982913  0.49849480     1.90100
O700        O  0.51720219  0.80557693  0.53346322    -0.73800
O701        O  0.46888509  0.84492748  0.96474252    -0.73700
O702        O  0.47888237  0.83980120  0.54912880    -0.79300
O703        O  0.50952730  0.90497132  0.95086192    -0.77500
O704        O  0.53982629  0.87485099  0.00032501    -1.13700
O705        O  0.58151521  0.94873864  0.97016108    -0.72800
C706        C  0.59988291  0.94023654  0.94497714     0.97900
C707        C  0.54696596  0.81714971  0.55522818     0.94300
Al708      Al  0.49741779  0.82944758  0.99983111     1.55600
O709        O  0.61023401  0.92388118  0.53588867    -0.77500
C710        C  0.47897105  0.87456858  0.94282027     0.98400
C711        C  0.54137693  0.81558693  0.94101020     0.93300
O712        O  0.57107665  0.83615047  0.96222318    -0.82800
O713        O  0.91038682  0.29990555  0.94887243    -0.82300
C714        C  0.87240220  0.38440764  0.56069562     0.97100
O715        O  0.90190352  0.39705890  0.53850051    -0.71400
O716        O  0.93854098  0.36117273  0.55061712    -0.75000
Al717      Al  0.92039472  0.37311538  0.00184400     1.49000
C718        C  0.94238211  0.33275934  0.55685502     0.92400
O719        O  0.85028080  0.26376022  0.54897018    -0.81200
O720        O  0.81663959  0.29692581  0.95028770    -0.74700
Al721      Al  0.88046438  0.28431655  0.49955925     1.90100
O722        O  0.80763950  0.27997106  0.53565667    -0.73800
O723        O  0.84770283  0.36951694  0.96734699    -0.73700
O724        O  0.84348611  0.35276288  0.55213016    -0.79300
O725        O  0.90778178  0.39121478  0.95347418    -0.77500
O726        O  0.87770558  0.32758449  0.00040510    -1.13700
O727        O  0.94922562  0.35953946  0.96616837    -0.72800
C728        C  0.94077435  0.33111690  0.94316749     0.97900
C729        C  0.81869460  0.26112541  0.55691875     0.94300
Al730      Al  0.83263841  0.32507199  0.00089646     1.55600
O731        O  0.92418018  0.30258274  0.53559831    -0.77500
C732        C  0.87729707  0.39111052  0.94673250     0.98400
C733        C  0.81693338  0.26682977  0.94129257     0.93300
O734        O  0.83710685  0.25724556  0.96224791    -0.82800
O735        O  0.68175548  0.07430598  0.80127872    -0.82300
C736        C  0.59775162  0.11737504  0.69513893     0.97100
O737        O  0.58545097  0.08819879  0.71788983    -0.71400
O738        O  0.62030549  0.05119262  0.69882321    -0.75000
Al739      Al  0.61052635  0.06755989  0.74960412     1.49000
C740        C  0.64658176  0.04393584  0.69296065     0.92400
O741        O  0.71872312  0.13505586  0.70190144    -0.81200
O742        O  0.68988114  0.17137397  0.79897341    -0.74700
Al743      Al  0.69772948  0.10483884  0.75119566     1.90100
O744        O  0.70334724  0.17877500  0.71406495    -0.73800
O745        O  0.61691408  0.14041223  0.78688313    -0.73700
O746        O  0.63067628  0.14510966  0.70085863    -0.79300
O747        O  0.59656238  0.08014883  0.80062263    -0.77500
O748        O  0.65632935  0.10937463  0.75028320    -1.13700
O749        O  0.62340137  0.03561004  0.78103067    -0.72800
C750        C  0.65053982  0.04358004  0.80565934     0.97900
C751        C  0.72152049  0.16674686  0.69311982     0.94300
Al752      Al  0.65998093  0.15505442  0.75023179     1.55600
O753        O  0.67686999  0.06029022  0.71454007    -0.77500
C754        C  0.59708572  0.11080095  0.80881484     0.98400
C755        C  0.71932685  0.17008437  0.80748791     0.93300
O756        O  0.72706479  0.14792260  0.78751752    -0.82800
O757        O  0.90724908  0.60487087  0.79900837    -0.82300
C758        C  0.86859381  0.47516896  0.69860254     0.97100
O759        O  0.89696047  0.49264168  0.72230828    -0.71400
O760        O  0.93024833  0.56336062  0.69921867    -0.75000
Al761      Al  0.91607110  0.54005144  0.75136705     1.49000
C762        C  0.93407238  0.59511966  0.68926559     0.92400
O763        O  0.84656707  0.57690273  0.70023388    -0.81200
O764        O  0.81125081  0.51410990  0.79800644    -0.74700
Al765      Al  0.87703966  0.58824345  0.74923204     1.90100
O766        O  0.80463414  0.51688869  0.71242822    -0.73800
O767        O  0.84465176  0.47385948  0.79014876    -0.73700
O768        O  0.84025616  0.47930410  0.70324698    -0.79300
O769        O  0.90435162  0.51581413  0.80408203    -0.77500
O770        O  0.87363933  0.54259271  0.75053264    -1.13700
O771        O  0.94745582  0.58716362  0.77998338    -0.72800
C772        C  0.93817302  0.60550115  0.80424114     0.97900
C773        C  0.81569133  0.54706739  0.69137740     0.94300
Al774      Al  0.82889320  0.49961750  0.75097619     1.55600
O775        O  0.92055574  0.61116516  0.71183637    -0.77500
C776        C  0.87406816  0.48530305  0.81282368     0.98400
C777        C  0.81280613  0.54528442  0.80574430     0.93300
O778        O  0.83470319  0.57493639  0.78526009    -0.82800
O779        O  0.37940528  0.07260640  0.94986546    -0.82300
C780        C  0.50568072  0.11736009  0.55833845     0.97100
O781        O  0.48924639  0.08745416  0.53648926    -0.71400
O782        O  0.41732318  0.04889591  0.55137946    -0.75000
Al783      Al  0.44360364  0.06543342  0.00295010     1.49000
C784        C  0.38393670  0.04192813  0.55712717     0.92400
O785        O  0.40363785  0.13261090  0.54917643    -0.81200
O786        O  0.46788925  0.16728285  0.95112136    -0.74700
Al787      Al  0.39451410  0.10319017  0.49971327     1.90100
O788        O  0.46198198  0.17764364  0.53513806    -0.73800
O789        O  0.51094413  0.13869902  0.96566035    -0.73700
O790        O  0.50174182  0.14547255  0.55043503    -0.79300
O791        O  0.47215518  0.07802499  0.95317068    -0.77500
O792        O  0.43970715  0.10716872  0.00131277    -1.13700
O793        O  0.39993236  0.03435446  0.96923645    -0.72800
C794        C  0.38046981  0.04229834  0.94495859     0.97900
C795        C  0.43227556  0.16469475  0.55716655     0.94300
Al796      Al  0.48175179  0.15302371  0.00069290     1.55600
O797        O  0.37029846  0.05844970  0.53562100    -0.77500
C798        C  0.50205537  0.10883600  0.94483663     0.98400
C799        C  0.43744963  0.16653989  0.94269213     0.93300
O800        O  0.40783776  0.14600416  0.96389864    -0.82800
O801        O  0.68135373  0.60398775  0.95117797    -0.82300
C802        C  0.59943320  0.47498626  0.55711715     0.97100
O803        O  0.58627771  0.49172675  0.53563288    -0.71400
O804        O  0.62211704  0.56361448  0.55534234    -0.75000
Al805      Al  0.61043974  0.53758336  0.00164125     1.49000
C806        C  0.64963528  0.59671654  0.56164784     0.92400
O807        O  0.71902805  0.57788592  0.54729634    -0.81200
O808        O  0.68796309  0.51450283  0.94867487    -0.74700
Al809      Al  0.69730900  0.58768982  0.49919700     1.90100
O810        O  0.70376728  0.51907331  0.53273710    -0.73800
O811        O  0.61609335  0.47187637  0.96243447    -0.73700
O812        O  0.63165849  0.47956987  0.54918457    -0.79300
O813        O  0.59577354  0.51190150  0.94973699    -0.77500
O814        O  0.65614422  0.54191961  0.99971589    -1.13700
O815        O  0.62324625  0.58360337  0.97204831    -0.72800
C816        C  0.65014363  0.60309686  0.94719993     0.97900
C817        C  0.72205276  0.54891312  0.55456626     0.94300
Al818      Al  0.65953878  0.49986280  0.99804267     1.55600
O819        O  0.67812618  0.61138619  0.53740288    -0.77500
C820        C  0.59641258  0.48189001  0.94102042     0.98400
C821        C  0.71706070  0.54558232  0.93952151     0.93300
O822        O  0.72600319  0.57532140  0.96073727    -0.82800
O823        O  0.38129429  0.29870904  0.80080626    -0.82300
C824        C  0.50701887  0.38165177  0.69378785     0.97100
O825        O  0.49094180  0.39449206  0.71675188    -0.71400
O826        O  0.41953571  0.35842005  0.69641034    -0.75000
Al827      Al  0.44495063  0.36957047  0.74782056     1.49000
C828        C  0.38643855  0.33112062  0.68979496     0.92400
O829        O  0.40404569  0.26167614  0.70205190    -0.81200
O830        O  0.46886196  0.29201991  0.80031088    -0.74700
Al831      Al  0.39492485  0.28244190  0.75101769     1.90100
O832        O  0.46252712  0.27605490  0.71610950    -0.73800
O833        O  0.51152942  0.36501383  0.78592732    -0.73700
O834        O  0.50207534  0.34889260  0.70032204    -0.79300
O835        O  0.47100964  0.38434763  0.79901952    -0.77500
O836        O  0.44094566  0.32401313  0.74980322    -1.13700
O837        O  0.39974507  0.35638079  0.77851936    -0.72800
C838        C  0.38181510  0.32988124  0.80451314     0.97900
C839        C  0.43249167  0.25807296  0.69455511     0.94300
Al840      Al  0.48279908  0.32066803  0.75064095     1.55600
O841        O  0.37112295  0.30269310  0.71430276    -0.77500
C842        C  0.50145730  0.38478815  0.80734018     0.98400
C843        C  0.43793034  0.26220646  0.80836198     0.93300
O844        O  0.40847250  0.25344597  0.78715399    -0.82800
O845        O  0.06996718  0.68374337  0.94923623    -0.82300
C846        C  0.11161028  0.59825084  0.55622827     0.97100
O847        O  0.08253946  0.58514402  0.53313220    -0.71400
O848        O  0.04471670  0.61913667  0.54913303    -0.75000
Al849      Al  0.06188924  0.61039350  0.99935145     1.49000
C850        C  0.03807635  0.64577001  0.55551630     0.92400
O851        O  0.12963585  0.71754690  0.54925177    -0.81200
O852        O  0.16423619  0.68881353  0.95054847    -0.74700
Al853      Al  0.09973881  0.69755308  0.49947446     1.90100
O854        O  0.17378327  0.70393080  0.53374531    -0.73800
O855        O  0.13476478  0.61587967  0.96474173    -0.73700
O856        O  0.13967766  0.63088820  0.54933023    -0.79300
O857        O  0.07530029  0.59585892  0.94916166    -0.77500
O858        O  0.10354494  0.65634517  0.99966797    -1.13700
O859        O  0.03154657  0.62401398  0.96601846    -0.72800
C860        C  0.03971554  0.65248359  0.94321060     0.97900
C861        C  0.16195597  0.72146857  0.55617312     0.94300
Al862      Al  0.14892993  0.65986665  0.00003195     1.55600
O863        O  0.05532474  0.67673064  0.53524789    -0.77500
C864        C  0.10561495  0.59563258  0.94251419     0.98400
C865        C  0.16360259  0.71886834  0.94253137     0.93300
O866        O  0.14301200  0.72776628  0.96380260    -0.82800
O867        O  0.29747393  0.90869553  0.80114715    -0.82300
C868        C  0.38083005  0.86616844  0.69353063     0.97100
O869        O  0.39349968  0.89549117  0.71622295    -0.71400
O870        O  0.35813540  0.93152194  0.69864636    -0.75000
Al871      Al  0.36876538  0.91595819  0.74907896     1.49000
C872        C  0.33072719  0.93651490  0.69076961     0.92400
O873        O  0.26009702  0.84840498  0.70211418    -0.81200
O874        O  0.28971067  0.81255144  0.79902554    -0.74700
Al875      Al  0.28143475  0.87857926  0.75128383     1.90100
O876        O  0.27562298  0.80473162  0.71393716    -0.73800
O877        O  0.36238629  0.84297942  0.78646935    -0.73700
O878        O  0.34837812  0.83800680  0.70037884    -0.79300
O879        O  0.38378594  0.90362540  0.79966580    -0.77500
O880        O  0.32296121  0.87407198  0.75011954    -1.13700
O881        O  0.35587019  0.94774408  0.78130029    -0.72800
C882        C  0.32865778  0.93918923  0.80603416     0.97900
C883        C  0.25724387  0.81674359  0.69322937     0.94300
Al884      Al  0.31923672  0.82839183  0.75001982     1.55600
O885        O  0.30182855  0.92285932  0.71440978    -0.77500
C886        C  0.38293789  0.87280297  0.80782056     0.98400
C887        C  0.26051784  0.81414213  0.80801665     0.93300
O888        O  0.25234266  0.83575654  0.78764374    -0.82800
C889        C  0.20663861  0.79577606  0.85837316    -0.21800
C890        C  0.23561127  0.79006020  0.84255835    -0.09800
C891        C  0.24050810  0.76095779  0.86012016     0.29100
C892        C  0.21692833  0.73822868  0.89236262    -0.21800
C893        C  0.18803896  0.74389601  0.90832148    -0.09800
C894        C  0.18312639  0.77307300  0.89105520     0.29100
F895        F  0.15533959  0.77934603  0.90517932    -0.20300
H896        H  0.20222876  0.81795994  0.84553342     0.17400
H897        H  0.22153698  0.71610690  0.90502001     0.17400
F898        F  0.26780021  0.75392961  0.84596253    -0.20300
C899        C  0.24065719  0.76717830  0.63797682    -0.21800
C900        C  0.23269418  0.79323451  0.65785831    -0.09800
C901        C  0.20148270  0.79609995  0.64353425     0.29100
C902        C  0.17848834  0.77272629  0.61066725    -0.21800
C903        C  0.18651101  0.74657357  0.59083219    -0.09800
C904        C  0.21824376  0.74441185  0.60479605     0.29100
F905        F  0.22751394  0.71984096  0.58692574    -0.20300
H906        H  0.26466782  0.76456449  0.64796048     0.17400
H907        H  0.15442256  0.77520476  0.60063821     0.17400
F908        F  0.19260604  0.82078399  0.66185568    -0.20300
C909        C  0.53813936  0.45524936  0.89748769    -0.21800
C910        C  0.57285251  0.45748231  0.90639038    -0.09800
C911        C  0.58413446  0.43569329  0.88266498     0.29100
C912        C  0.56083386  0.41203862  0.85051694    -0.21800
C913        C  0.52579809  0.40946800  0.84177537    -0.09800
C914        C  0.51460401  0.43129538  0.86587125     0.29100
F915        F  0.48081271  0.42948197  0.85928616    -0.20300
H916        H  0.52879716  0.47155963  0.91568322     0.17400
H917        H  0.57030628  0.39581433  0.83240415     0.17400
F918        F  0.61801219  0.43790235  0.88990629    -0.20300
C919        C  0.55076298  0.45885539  0.61165689    -0.21800
C920        C  0.57666509  0.45071142  0.59217617    -0.09800
C921        C  0.58002156  0.41975621  0.60648471     0.29100
C922        C  0.55723341  0.39711427  0.63955643    -0.21800
C923        C  0.53136947  0.40547520  0.65912010    -0.09800
C924        C  0.52848556  0.43675107  0.64481527     0.29100
F925        F  0.50360721  0.44574748  0.66221064    -0.20300
H926        H  0.54787724  0.48272026  0.60134880     0.17400
H927        H  0.55990259  0.37316026  0.64995045     0.17400
F928        F  0.60449457  0.41082714  0.58791815    -0.20300
C929        C  0.34331949  0.97627495  0.91670267    -0.21800
C930        C  0.36010694  0.01576640  0.91011079    -0.09800
C931        C  0.36208739  0.02937540  0.86913790     0.29100
C932        C  0.35006694  0.00400187  0.83516084    -0.21800
C933        C  0.33465975  0.96469631  0.84173881    -0.09800
C934        C  0.33020538  0.95084439  0.88289266     0.29100
F935        F  0.31619123  0.91311191  0.89014091    -0.20300
H936        H  0.34175087  0.96525312  0.94802915     0.17400
H937        H  0.35398794  0.01514153  0.80356142     0.17400
F938        F  0.37850429  0.06736890  0.86167306    -0.20300
C939        C  0.32991861  0.99115226  0.65505341    -0.21800
C940        C  0.33394094  0.95875702  0.65315359    -0.09800
C941        C  0.34844952  0.95148754  0.61667372     0.29100
C942        C  0.36172225  0.97771878  0.58413325    -0.21800
C943        C  0.36084678  0.01168697  0.58722803    -0.09800
C944        C  0.34344477  0.01774647  0.62205057     0.29100
F945        F  0.34283392  0.05072985  0.62588861    -0.20300
H946        H  0.31924757  0.99733939  0.68326324     0.17400
H947        H  0.37489702  0.97257428  0.55735806     0.17400
F948        F  0.35231402  0.92020240  0.61382901    -0.20300
C949        C  0.39781662  0.18622583  0.60475975    -0.21800
C950        C  0.43163552  0.18759482  0.59284286    -0.09800
C951        C  0.46513281  0.21119737  0.61533587     0.29100
C952        C  0.46486126  0.23342597  0.64854126    -0.21800
C953        C  0.43132756  0.23295845  0.66001637    -0.09800
C954        C  0.39760766  0.20892427  0.63777096     0.29100
F955        F  0.36446078  0.20732469  0.64769711    -0.20300
H956        H  0.37167090  0.16812623  0.58793126     0.17400
H957        H  0.49122783  0.25136682  0.66506233     0.17400
F958        F  0.49811380  0.21225254  0.60580473    -0.20300
C959        C  0.40295794  0.18824251  0.89520401    -0.21800
C960        C  0.43707159  0.19051766  0.90797011    -0.09800
C961        C  0.47106879  0.21625204  0.88729957     0.29100
C962        C  0.47080241  0.23927069  0.85515295    -0.21800
C963        C  0.43683526  0.23709617  0.84241811    -0.09800
C964        C  0.40272145  0.21118154  0.86256269     0.29100
F965        F  0.36934562  0.20859701  0.85143921    -0.20300
H966        H  0.37642028  0.16872449  0.91050526     0.17400
H967        H  0.49741315  0.25876204  0.83993269     0.17400
F968        F  0.50485556  0.21960457  0.89813673    -0.20300
C969        C  0.00223206  0.64942578  0.83412964    -0.21800
C970        C  0.96302923  0.62530198  0.84020713    -0.09800
C971        C  0.94897338  0.61443036  0.88106402     0.29100
C972        C  0.97412708  0.62520011  0.91494930    -0.21800
C973        C  0.01352421  0.64786960  0.90873458    -0.09800
C974        C  0.02733314  0.66129518  0.86824443     0.29100
F975        F  0.06523805  0.68297248  0.86117064    -0.20300
H976        H  0.01352458  0.65761536  0.80271310     0.17400
H977        H  0.96295908  0.61447771  0.94591866     0.17400
F978        F  0.91131281  0.59041416  0.88770801    -0.20300
C979        C  0.98594975  0.65049468  0.65089932    -0.21800
C980        C  0.95525422  0.61285679  0.65090217    -0.09800
C981        C  0.94892175  0.58936795  0.61600361     0.29100
C982        C  0.97492727  0.60201258  0.58346270    -0.21800
C983        C  0.00766402  0.63816804  0.58513634    -0.09800
C984        C  0.01229784  0.66324217  0.61792343     0.29100
F985        F  0.04383991  0.69833407  0.62006356    -0.20300
H986        H  0.99119003  0.66875441  0.67782771     0.17400
H987        H  0.97065936  0.58258872  0.55795569     0.17400
F988        F  0.91894444  0.55311463  0.61483320    -0.20300
C989        C  0.79539142  0.58210325  0.64269522    -0.21800
C990        C  0.79196890  0.54749940  0.65613844    -0.09800
C991        C  0.76563378  0.51358052  0.63566004     0.29100
C992        C  0.74354543  0.51451226  0.60253343    -0.21800
C993        C  0.74667058  0.54908127  0.58925844    -0.09800
C994        C  0.77282007  0.58296089  0.60996638     0.29100
F995        F  0.77681303  0.61701138  0.59859811    -0.20300
H996        H  0.81526993  0.60861319  0.65799908     0.17400
H997        H  0.72360098  0.48788037  0.58748945     0.17400
F998        F  0.76157279  0.47948672  0.64708495    -0.20300
C999        C  0.75569304  0.51256897  0.85101490    -0.21800
C1000       C  0.78813603  0.54655599  0.83889845    -0.09800
C1001       C  0.79651578  0.58080353  0.85907923     0.29100
C1002       C  0.77318414  0.58056292  0.89149600    -0.21800
C1003       C  0.74098786  0.54631814  0.90406319    -0.09800
C1004       C  0.73225932  0.51230396  0.88288499     0.29100
F1005       F  0.70134144  0.47838757  0.89313714    -0.20300
H1006       H  0.74830298  0.48587919  0.83569484     0.17400
H1007       H  0.78055206  0.60714275  0.90702683     0.17400
F1008       F  0.82777899  0.61429079  0.84842339    -0.20300
C1009       C  0.54792119  0.07676288  0.86378293    -0.21800
C1010       C  0.57345447  0.11125640  0.84391774    -0.09800
C1011       C  0.57566592  0.14523240  0.85800068     0.29100
C1012       C  0.55273630  0.14439182  0.89116748    -0.21800
C1013       C  0.52693542  0.10974479  0.91054864    -0.09800
C1014       C  0.52486241  0.07588173  0.89652080     0.29100
F1015       F  0.50096123  0.04182392  0.91480098    -0.20300
H1016       H  0.54552999  0.05011419  0.85385280     0.17400
H1017       H  0.55479220  0.17084014  0.90131593     0.17400
F1018       F  0.59993871  0.17926089  0.83994732    -0.20300
C1019       C  0.51444973  0.08787089  0.62170243    -0.21800
C1020       C  0.52899633  0.11872676  0.59395146    -0.09800
C1021       C  0.56548819  0.15008944  0.60048441     0.29100
C1022       C  0.58765046  0.14982362  0.63383971    -0.21800
C1023       C  0.57340066  0.11854609  0.66143684    -0.09800
C1024       C  0.53610711  0.08784804  0.65548503     0.29100
F1025       F  0.52043811  0.05758630  0.68200955    -0.20300
H1026       H  0.48604360  0.06379105  0.61732318     0.17400
H1027       H  0.61615158  0.17382733  0.63765939     0.17400
F1028       F  0.58020985  0.18014433  0.57366605    -0.20300
C1029       C  0.77105491  0.18702727  0.86035106    -0.21800
C1030       C  0.74501113  0.19521520  0.84100509    -0.09800
C1031       C  0.74360058  0.22763025  0.85420226     0.29100
C1032       C  0.76730643  0.25080068  0.88633387    -0.21800
C1033       C  0.79287356  0.24228239  0.90634445    -0.09800
C1034       C  0.79465816  0.21012310  0.89277654     0.29100
F1035       F  0.81912275  0.20082722  0.91072293    -0.20300
H1036       H  0.77279501  0.16234578  0.85077198     0.17400
H1037       H  0.76536538  0.27540785  0.89574779     0.17400
F1038       F  0.71966400  0.23739837  0.83574415    -0.20300
C1039       C  0.77665237  0.18614656  0.64393228    -0.21800
C1040       C  0.74624053  0.19036135  0.65794088    -0.09800
C1041       C  0.73973920  0.21754408  0.63799777     0.29100
C1042       C  0.76320478  0.23993623  0.60524649    -0.21800
C1043       C  0.79401033  0.23623528  0.59153455    -0.09800
C1044       C  0.80049772  0.20896831  0.61136199     0.29100
F1045       F  0.82963636  0.20405532  0.59917240    -0.20300
H1046       H  0.78232474  0.16545885  0.65862665     0.17400
H1047       H  0.75729019  0.26053825  0.59075846     0.17400
F1048       F  0.71021955  0.22212797  0.64953588    -0.20300
C1049       C  0.90691613  0.47446610  0.87297897    -0.21800
C1050       C  0.87370163  0.46218810  0.84903847    -0.09800
C1051       C  0.84108371  0.42724408  0.85931054     0.29100
C1052       C  0.84231266  0.40471206  0.89172735    -0.21800
C1053       C  0.87597657  0.41631359  0.91428444    -0.09800
C1054       C  0.90814987  0.45178600  0.90518661     0.29100
F1055       F  0.94064855  0.46477618  0.92773331    -0.20300
H1056       H  0.93229959  0.50147920  0.86640594     0.17400
H1057       H  0.81711425  0.37758259  0.89847686     0.17400
F1058       F  0.80814814  0.41434951  0.83767986    -0.20300
C1059       C  0.90425276  0.45796262  0.64804653    -0.21800
C1060       C  0.86929696  0.45061256  0.66472888    -0.09800
C1061       C  0.83552276  0.42076523  0.64765747     0.29100
C1062       C  0.83681508  0.39912040  0.61425765    -0.21800
C1063       C  0.87170174  0.40707484  0.59678900    -0.09800
C1064       C  0.90557663  0.43668104  0.61429067     0.29100
F1065       F  0.94003726  0.44500033  0.59911818    -0.20300
H1066       H  0.93068689  0.48085452  0.66057069     0.17400
H1067       H  0.81034457  0.37638419  0.60164427     0.17400
F1068       F  0.80122618  0.41220825  0.66347231    -0.20300
C1069       C  0.65492639  0.03075148  0.88140291    -0.21800
C1070       C  0.64412993  0.01683823  0.84044397    -0.09800
C1071       C  0.62220839  0.97711102  0.83407640     0.29100
C1072       C  0.61053928  0.95199774  0.86823966    -0.21800
C1073       C  0.61931864  0.96609743  0.90933445    -0.09800
C1074       C  0.64203820  0.00568673  0.91565767     0.29100
F1075       F  0.65056415  0.02017061  0.95508240    -0.20300
H1076       H  0.67118058  0.06120121  0.88707195     0.17400
H1077       H  0.59248370  0.92167132  0.86276186     0.17400
F1078       F  0.61083768  0.96267559  0.79491597    -0.20300
C1079       C  0.59149419  0.95331383  0.63275550    -0.21800
C1080       C  0.61420872  0.95996558  0.59730335    -0.09800
C1081       C  0.65126535  0.99176563  0.59661393     0.29100
C1082       C  0.66367987  0.01848630  0.62959984    -0.21800
C1083       C  0.63905088  0.01333257  0.66299783    -0.09800
C1084       C  0.60362285  0.97964465  0.66517352     0.29100
F1085       F  0.57962063  0.97329576  0.69764501    -0.20300
H1086       H  0.56301347  0.92876843  0.63402888     0.17400
H1087       H  0.69114377  0.04430422  0.62757520     0.17400
F1088       F  0.67385025  0.99876205  0.56263639    -0.20300
C1089       C  0.42139078  0.83968181  0.89689357    -0.21800
C1090       C  0.45454153  0.87384948  0.90787081    -0.09800
C1091       C  0.46387121  0.90726340  0.88519580     0.29100
C1092       C  0.44031496  0.90642333  0.85295472    -0.21800
C1093       C  0.40724933  0.87236991  0.84201917    -0.09800
C1094       C  0.39801132  0.83882247  0.86416846     0.29100
F1095       F  0.36593271  0.80547153  0.85502428    -0.20300
H1096       H  0.41344191  0.81352793  0.91371450     0.17400
H1097       H  0.44822528  0.93260081  0.83617110     0.17400
F1098       F  0.49565588  0.94096777  0.89409124    -0.20300
C1099       C  0.42348876  0.83231464  0.60960441    -0.21800
C1100       C  0.45019447  0.86708689  0.59104562    -0.09800
C1101       C  0.45369966  0.90119332  0.60667333     0.29100
C1102       C  0.43121281  0.90038881  0.64006962    -0.21800
C1103       C  0.40434927  0.86571441  0.65842192    -0.09800
C1104       C  0.40047581  0.83151357  0.64272034     0.29100
F1105       F  0.37511790  0.79743395  0.65990469    -0.20300
H1106       H  0.42023023  0.80566477  0.59828683     0.17400
H1107       H  0.43459600  0.92710908  0.65136095     0.17400
F1108       F  0.47934134  0.93555856  0.59028062    -0.20300
C1109       C  0.07359862  0.51709883  0.86126022    -0.21800
C1110       C  0.10812598  0.52516474  0.84266197    -0.09800
C1111       C  0.14213049  0.55619524  0.85808657     0.29100
C1112       C  0.14125668  0.57870282  0.89093635    -0.21800
C1113       C  0.10658450  0.57101304  0.90876709    -0.09800
C1114       C  0.07270276  0.53965701  0.89375324     0.29100
F1115       F  0.03857693  0.53029965  0.91081410    -0.20300
H1116       H  0.04694369  0.49331315  0.85043096     0.17400
H1117       H  0.16774051  0.60256327  0.90202050     0.17400
F1118       F  0.17624777  0.56478551  0.84169394    -0.20300
C1119       C  0.07960455  0.52286085  0.64096506    -0.21800
C1120       C  0.11434064  0.53042202  0.65851815    -0.09800
C1121       C  0.14830629  0.56078239  0.64248713     0.29100
C1122       C  0.14729605  0.58299126  0.60944125    -0.21800
C1123       C  0.11251268  0.57495148  0.59143306    -0.09800
C1124       C  0.07857973  0.54464237  0.60770635     0.29100
F1125       F  0.04423761  0.53631012  0.59205500    -0.20300
H1126       H  0.05305491  0.49964527  0.65269812     0.17400
H1127       H  0.17377432  0.60627625  0.59768200     0.17400
F1128       F  0.18238777  0.56948642  0.65919729    -0.20300
C1129       C  0.95267614  0.32654509  0.86752240    -0.21800
C1130       C  0.96670738  0.33581537  0.90855644    -0.09800
C1131       C  0.00621306  0.35488945  0.91532787     0.29100
C1132       C  0.03125778  0.36622028  0.88132001    -0.21800
C1133       C  0.01724629  0.35974376  0.84017996    -0.09800
C1134       C  0.97772387  0.33895875  0.83347765     0.29100
F1135       F  0.96339732  0.33227722  0.79395457    -0.20300
H1136       H  0.92235087  0.31217903  0.86172593     0.17400
H1137       H  0.06158736  0.38254595  0.88707032     0.17400
F1138       F  0.02053963  0.36405155  0.95478286    -0.20300
C1139       C  0.98468781  0.33196597  0.66089020    -0.21800
C1140       C  0.02172206  0.36260180  0.65499605    -0.09800
C1141       C  0.03376592  0.37814024  0.61492443     0.29100
C1142       C  0.00814803  0.36519266  0.58170003    -0.21800
C1143       C  0.97029317  0.33674998  0.58815519    -0.09800
C1144       C  0.95884270  0.31905488  0.62745831     0.29100
F1145       F  0.92198026  0.29231649  0.63447398    -0.20300
H1146       H  0.97496554  0.32036953  0.69195835     0.17400
H1147       H  0.01709185  0.37931260  0.55157494     0.17400
F1148       F  0.06947259  0.40791273  0.60879777    -0.20300
C1149       C  0.34733352  0.36066930  0.83357057    -0.21800
C1150       C  0.36251752  0.33669229  0.83963980    -0.09800
C1151       C  0.36342683  0.32375624  0.88029084     0.29100
C1152       C  0.35100349  0.33628475  0.91443212    -0.21800
C1153       C  0.33654876  0.36084886  0.90824523    -0.09800
C1154       C  0.33415143  0.37242940  0.86751340     0.29100
F1155       F  0.32198555  0.39761001  0.86099780    -0.20300
H1156       H  0.34688626  0.37137459  0.80258716     0.17400
H1157       H  0.35377041  0.32783744  0.94585560     0.17400
F1158       F  0.37896880  0.30150452  0.88737929    -0.20300
C1159       C  0.33083035  0.33165336  0.65734868    -0.21800
C1160       C  0.36617582  0.33376590  0.65313730    -0.09800
C1161       C  0.38556175  0.34517740  0.61484643     0.29100
C1162       C  0.37115805  0.35680125  0.58222173    -0.21800
C1163       C  0.33754034  0.35783421  0.58733105    -0.09800
C1164       C  0.31657563  0.34397887  0.62452884     0.29100
F1165       F  0.28461133  0.34586644  0.63058467    -0.20300
H1166       H  0.31595489  0.32351546  0.68703870     0.17400
H1167       H  0.38773712  0.36766638  0.55377671     0.17400
F1168       F  0.41981161  0.34756020  0.61002965    -0.20300
C1169       C  0.19358358  0.40425642  0.84845885    -0.21800
C1170       C  0.19338605  0.43812344  0.83941910    -0.09800
C1171       C  0.21729610  0.47120852  0.86271858     0.29100
C1172       C  0.23989546  0.47000263  0.89478351    -0.21800
C1173       C  0.23926086  0.43598290  0.90464903    -0.09800
C1174       C  0.21631600  0.40312045  0.88075727     0.29100
F1175       F  0.21642635  0.37021344  0.88797760    -0.20300
H1176       H  0.17603273  0.37853227  0.83060400     0.17400
H1177       H  0.25754637  0.49580584  0.91250419     0.17400
F1178       F  0.21881432  0.50484613  0.85496953    -0.20300
C1179       C  0.24623578  0.46028736  0.61633006    -0.21800
C1180       C  0.23239231  0.42784917  0.59073765    -0.09800
C1181       C  0.19624253  0.39641300  0.59911542     0.29100
C1182       C  0.17423619  0.39796098  0.63213485    -0.21800
C1183       C  0.18804928  0.43065746  0.65772354    -0.09800
C1184       C  0.22468286  0.46170177  0.64957568     0.29100
F1185       F  0.23999675  0.49359901  0.67368360    -0.20300
H1186       H  0.27419877  0.48469662  0.61074912     0.17400
H1187       H  0.14620318  0.37362385  0.63743124     0.17400
F1188       F  0.18164459  0.36484628  0.57452270    -0.20300
C1189       C  0.62268131  0.64152626  0.91876541    -0.21800
C1190       C  0.64355425  0.62298367  0.91219834    -0.09800
C1191       C  0.65304449  0.61869127  0.87103865     0.29100
C1192       C  0.63996032  0.63074891  0.83705942    -0.21800
C1193       C  0.61814313  0.64823111  0.84353017    -0.09800
C1194       C  0.61050089  0.65458280  0.88474358     0.29100
F1195       F  0.58855226  0.67039062  0.89196575    -0.20300
H1196       H  0.61463378  0.64462793  0.95023123     0.17400
H1197       H  0.64556251  0.62504227  0.80548912     0.17400
F1198       F  0.67202933  0.59979573  0.86351143    -0.20300
C1199       C  0.63192970  0.61823787  0.67052361    -0.21800
C1200       C  0.62035627  0.64484869  0.66257547    -0.09800
C1201       C  0.62441548  0.66005864  0.62214636     0.29100
C1202       C  0.63782336  0.64689443  0.58948218    -0.21800
C1203       C  0.64686615  0.61829730  0.59698012    -0.09800
C1204       C  0.64504344  0.60493739  0.63795490     0.29100
F1205       F  0.65340057  0.57709091  0.64583096    -0.20300
H1206       H  0.62835303  0.60586369  0.70147328     0.17400
H1207       H  0.63820122  0.65670653  0.55780280     0.17400
F1208       F  0.61204236  0.68474500  0.61352556    -0.20300
C1209       C  0.42302583  0.58084863  0.63976643    -0.21800
C1210       C  0.44937445  0.57284765  0.65883600    -0.09800
C1211       C  0.45190112  0.54132499  0.64468746     0.29100
C1212       C  0.42896188  0.51883880  0.61187461    -0.21800
C1213       C  0.40271334  0.52684679  0.59282193    -0.09800
C1214       C  0.39960490  0.55787191  0.60726194     0.29100
F1215       F  0.37478709  0.56664932  0.58922887    -0.20300
H1216       H  0.42046818  0.60488187  0.65008791     0.17400
H1217       H  0.43162547  0.49488222  0.60143977     0.17400
F1218       F  0.47700547  0.53250094  0.66188304    -0.20300
C1219       C  0.39721403  0.54842762  0.88705222    -0.21800
C1220       C  0.40757482  0.52472752  0.90839828    -0.09800
C1221       C  0.44044845  0.52438215  0.89577083     0.29100
C1222       C  0.46260348  0.54758812  0.86293800    -0.21800
C1223       C  0.45246558  0.57142994  0.84143951    -0.09800
C1224       C  0.41916652  0.57133316  0.85361048     0.29100
F1225       F  0.40773469  0.59326261  0.83339698    -0.20300
H1226       H  0.37175078  0.54881542  0.89590228     0.17400
H1227       H  0.48791428  0.54679428  0.85438168     0.17400
F1228       F  0.45178997  0.50223478  0.91571197    -0.20300
C1229       C  0.51378274  0.73741759  0.63601222    -0.21800
C1230       C  0.54762415  0.74662351  0.65708048    -0.09800
C1231       C  0.58145375  0.77940927  0.64453043     0.29100
C1232       C  0.58117028  0.80224515  0.61154151    -0.21800
C1233       C  0.54728167  0.79275317  0.59012072    -0.09800
C1234       C  0.51347780  0.75990510  0.60294835     0.29100
F1235       F  0.47978995  0.74950583  0.58399557    -0.20300
H1236       H  0.48730780  0.71238097  0.64496178     0.17400
H1237       H  0.60756595  0.82743215  0.60278124     0.17400
F1238       F  0.61458860  0.79003655  0.66486799    -0.20300
C1239       C  0.57488105  0.77077018  0.85910198    -0.21800
C1240       C  0.54044382  0.74474031  0.83965893    -0.09800
C1241       C  0.50674532  0.74306775  0.85301043     0.29100
C1242       C  0.50756163  0.76644472  0.88554632    -0.21800
C1243       C  0.54183465  0.79194319  0.90575103    -0.09800
C1244       C  0.57568036  0.79407033  0.89192005     0.29100
F1245       F  0.60956399  0.81851774  0.90998973    -0.20300
H1246       H  0.60123484  0.77268061  0.84933045     0.17400
H1247       H  0.48105277  0.76429173  0.89510329     0.17400
F1248       F  0.47295387  0.71922239  0.83432370    -0.20300
loop_ 
_geom_bond_atom_site_label_1 
_geom_bond_atom_site_label_2 
_geom_bond_distance 
_geom_bond_site_symmetry_2 
_ccdc_geom_bond_type 
O1           C16   1.261       .  A
O1           Al9   1.916       .  S
C2           O12   1.257       .  A
C2            O3   1.260       .  A
C2          C586   1.477       .  S
O3           Al5   1.908       .  S
O4            C6   1.258       .  A
O4           Al5   1.861       .  S
Al5          O13   1.871       .  S
Al5          O15   1.909       .  S
Al5          O14   1.779       .  S
C6           O19   1.269       .  A
C6          C576   1.473       .  S
O7           C17   1.264       .  A
O7           Al9   1.908       .  S
O8           C21   1.258       .  A
O8          Al18   1.879       .  S
Al9          O22   1.923       .  S
Al9          O19   1.954       .  S
Al9          O14   1.789       .  S
O10          C17   1.265       .  A
O10         Al18   1.916       .  S
O11          C20   1.267       .  A
O11         Al18   1.939       .  S
O12         Al18   1.892       .  S
O13          C20   1.258       .  A
O14         Al18   1.784       .  S
O15          C16   1.259       .  A
C16         C569   1.473       .  S
C17         C606   1.485       .  S
C20         C599   1.483       .  S
C21          O22   1.264       .  A
C21         C616   1.480       .  S
O23          C38   1.259       .  A
O23        Al655   1.909       .  S
C24          O34   1.256       .  A
C24          O25   1.259       .  A
C24         C589   1.475       .  S
O25        Al651   1.905       .  S
O26          C28   1.257       .  A
O26        Al651   1.860       .  S
Al27         O35   1.880       .  S
Al27         O37   1.907       .  S
Al27        O649   1.901       .  S
Al27        O650   1.859       .  S
Al27         O36   1.784       .  S
C28          O41   1.269       .  A
C28         C539   1.464       .  S
O29          C39   1.263       .  A
O29         Al31   1.911   1_554  S
O30          C43   1.256       .  A
O30         Al40   1.874       .  S
Al31         O41   1.948   1_556  S
Al31        O647   1.906       .  S
Al31        O668   1.924       .  S
Al31        O660   1.791       .  S
O32          C39   1.263       .  A
O32        Al664   1.911   1_554  S
O33          C42   1.266       .  A
O33         Al40   1.925       .  S
O34        Al664   1.890   1_554  S
O35          C42   1.260       .  A
O36         Al40   1.784       .  S
O36        Al655   1.790       .  S
O37          C38   1.257       .  A
C38         C529   1.469       .  S
C39         C556   1.483       .  S
Al40        O656   1.906       .  S
Al40        O658   1.893       .  S
C42         C596   1.474       .  S
C43          O44   1.265       .  A
C43         C549   1.481       .  S
O44        Al655   1.927       .  S
O45          C60   1.262       .  A
O45         Al53   1.917       .  S
C46          O56   1.258       .  A
C46          O47   1.259       .  A
C46         C496   1.478       .  S
O47         Al49   1.907       .  S
O48          C50   1.258       .  A
O48         Al49   1.870       .  S
Al49         O57   1.886       .  S
Al49         O59   1.916       .  S
Al49         O58   1.781       .  S
C50          O63   1.266       .  A
C50         C516   1.461       .  S
O51          C61   1.264       .  A
O51         Al53   1.908       .  S
O52          C65   1.257       .  A
O52         Al62   1.882       .  S
Al53         O66   1.920       .  S
Al53         O63   1.940       .  S
Al53         O58   1.788       .  S
O54          C61   1.267       .  A
O54         Al62   1.924       .  S
O55          C64   1.269       .  A
O55         Al62   1.935       .  S
O56         Al62   1.899       .  S
O57          C64   1.262       .  A
O58         Al62   1.780       .  S
O59          C60   1.261       .  A
C60         C509   1.476       .  S
C61         C559   1.494       .  S
C64         C486   1.486       .  S
C65          O66   1.262       .  A
C65         C546   1.485       .  S
O67          C82   1.261       .  A
O67        Al699   1.916       .  S
C68          O78   1.259       .  A
C68          O69   1.261       .  A
C68         C476   1.486       .  S
O69        Al695   1.913       .  S
O70          C72   1.258       .  A
O70        Al695   1.861       .  S
Al71         O79   1.886       .  S
Al71         O81   1.917       .  S
Al71        O693   1.915       .  S
Al71        O694   1.861       .  S
Al71         O80   1.778       .  S
C72          O85   1.269       .  A
C72         C456   1.472       .  S
O73          C83   1.264       .  A
O73         Al75   1.913   1_554  S
O74          C87   1.259       .  A
O74         Al84   1.880       .  S
Al75         O85   1.956   1_556  S
Al75        O691   1.918       .  S
Al75        O712   1.926       .  S
Al75        O704   1.788   1_556  S
O76          C83   1.264       .  A
O76        Al708   1.914   1_554  S
O77          C86   1.268       .  A
O77         Al84   1.933       .  S
O78        Al708   1.906   1_554  S
O79          C86   1.261       .  A
O80         Al84   1.781       .  S
O80        Al699   1.788       .  S
O81          C82   1.260       .  A
C82         C449   1.478       .  S
C83         C609   1.493       .  S
Al84        O700   1.916       .  S
Al84        O702   1.902       .  S
C86         C466   1.486       .  S
C87          O88   1.265       .  A
C87         C619   1.484       .  S
O88        Al699   1.926       .  S
O89         C104   1.262       .  A
O89        Al721   1.916       .  S
C90         O100   1.260       .  A
C90          O91   1.261       .  A
C90         C439   1.481       .  S
O91        Al717   1.910       .  S
O92          C94   1.255       .  A
O92        Al717   1.863       .  S
Al93        O101   1.888       .  S
Al93        O103   1.908       .  S
Al93        O715   1.912       .  S
Al93        O716   1.864       .  S
Al93        O102   1.790       .  S
C94         O107   1.262       .  A
C94         C519   1.460       .  S
O95         C105   1.262       .  A
O95         Al97   1.910   1_554  S
O96         C109   1.261       .  A
O96        Al106   1.892       .  S
Al97        O107   1.927   1_556  S
Al97        O713   1.911       .  S
Al97        O734   1.918       .  S
Al97        O726   1.794   1_556  S
O98         C105   1.262       .  A
O98        Al730   1.911       .  S
O99         C108   1.263       .  A
O99        Al106   1.917       .  S
O100       Al730   1.896       .  S
O101        C108   1.259       .  A
O102       Al106   1.787       .  S
O102       Al721   1.793       .  S
O103        C104   1.260       .  A
C104        C506   1.477       .  S
C105        C419   1.490       .  S
Al106       O722   1.913       .  S
Al106       O724   1.896       .  S
C108        C429   1.478       .  S
C109        O110   1.263       .  A
C109        C409   1.488       .  S
O110       Al721   1.920       .  S
O111        C126   1.262       .  A
O111       Al119   1.922       .  S
C112        O122   1.257       .  A
C112        O113   1.258       .  A
C112        C399   1.481       .  S
O113       Al115   1.905       .  S
O114        C116   1.260       .  A
O114       Al115   1.871       .  S
Al115       O123   1.879       .  S
Al115       O125   1.908       .  S
Al115       O124   1.781       .  S
C116        O129   1.269       .  A
C116        C459   1.473       .  S
O117        C127   1.264       .  A
O117       Al119   1.910       .  S
O118        C131   1.257       .  A
O118       Al128   1.879       .  S
Al119       O132   1.930       .  S
Al119       O129   1.952       .  S
Al119       O124   1.788       .  S
O120        C127   1.264       .  A
O120       Al128   1.912       .  S
O121        C130   1.268       .  A
O121       Al128   1.936       .  S
O122       Al128   1.896       .  S
O123        C130   1.261       .  A
O124       Al128   1.785       .  S
O125        C126   1.258       .  A
C126        C446   1.478       .  S
C127        C416   1.489       .  S
C130        C386   1.484       .  S
C131        O132   1.265       .  A
C131        C406   1.484       .  S
O133        C148   1.259       .  A
O133       Al141   1.911       .  S
C134        O144   1.257       .  A
C134        O135   1.259       .  A
C134        C436   1.481       .  S
O135       Al137   1.913       .  S
O136        C138   1.259       .  A
O136       Al137   1.860       .  S
Al137       O145   1.885       .  S
Al137       O147   1.914       .  S
Al137       O146   1.784       .  S
C138        O151   1.269       .  A
C138        C356   1.465       .  S
O139        C149   1.263       .  A
O139       Al141   1.902       .  S
O140        C153   1.259       .  A
O140       Al150   1.883       .  S
Al141       O154   1.914       .  S
Al141       O151   1.946       .  S
Al141       O146   1.787       .  S
O142        C149   1.265       .  A
O142       Al150   1.919       .  S
O143        C152   1.270       .  A
O143       Al150   1.936       .  S
O144       Al150   1.896       .  S
O145        C152   1.263       .  A
O146       Al150   1.779       .  S
O147        C148   1.258       .  A
C148        C346   1.472       .  S
C149        C366   1.488       .  S
C152        C426   1.485       .  S
C153        O154   1.262       .  A
C153        C376   1.480       .  S
O155        C170   1.262       .  A
O155       Al787   1.911       .  S
C156        O166   1.255       .  A
C156        O157   1.260       .  A
C156        C396   1.466       .  S
O157       Al783   1.908       .  S
O158        C160   1.256       .  A
O158       Al783   1.864       .  S
Al159       O167   1.881       .  S
Al159       O169   1.908       .  S
Al159       O781   1.907       .  S
Al159       O782   1.861       .  S
Al159       O168   1.778       .  S
C160        O173   1.265       .  A
C160        C319   1.464       .  S
O161        C171   1.262       .  A
O161       Al163   1.902   1_554  S
O162        C175   1.255       .  A
O162       Al172   1.865       .  S
Al163       O173   1.938   1_556  S
Al163       O779   1.914       .  S
Al163       O800   1.925       .  S
Al163       O792   1.793   1_556  S
O164        C171   1.264       .  A
O164       Al796   1.912       .  S
O165        C174   1.264       .  A
O165       Al172   1.927       .  S
O166       Al796   1.883       .  S
O167        C174   1.259       .  A
O168       Al172   1.785       .  S
O168       Al787   1.792       .  S
O169        C170   1.260       .  A
C170        C306   1.475       .  S
C171        C326   1.480       .  S
Al172       O788   1.912       .  S
Al172       O790   1.882       .  S
C174        C389   1.480       .  S
C175        O176   1.266       .  A
C175        C336   1.481       .  S
O176       Al787   1.932       .  S
O177        C192   1.262       .  A
O177       Al809   1.913       .  S
C178        O188   1.256       .  A
C178        O179   1.260       .  A
C178        C296   1.473       .  S
O179       Al805   1.906       .  S
O180        C182   1.258       .  A
O180       Al805   1.861       .  S
Al181       O189   1.890       .  S
Al181       O191   1.916       .  S
Al181       O803   1.899       .  S
Al181       O804   1.879       .  S
Al181       O190   1.782       .  S
C182        O195   1.270       .  A
C182        C579   1.473       .  S
O183        C193   1.262       .  A
O183       Al185   1.908   1_554  S
O184        C197   1.255       .  A
O184       Al194   1.871       .  S
Al185       O195   1.956   1_556  S
Al185       O801   1.914       .  S
Al185       O822   1.935       .  S
Al185       O814   1.786       .  S
O186        C193   1.262       .  A
O186       Al818   1.910   1_554  S
O187        C196   1.265       .  A
O187       Al194   1.918       .  S
O188       Al818   1.892   1_554  S
O189        C196   1.263       .  A
O190       Al194   1.782       .  S
O190       Al809   1.785       .  S
O191        C192   1.260       .  A
C192        C566   1.478       .  S
C193        C369   1.491       .  S
Al194       O810   1.912       .  S
Al194       O812   1.891       .  S
C196        C286   1.474       .  S
C197        O198   1.265       .  A
C197        C379   1.484       .  S
O198       Al809   1.930       .  S
O199        C214   1.260       .  A
O199       Al207   1.907       .  S
C200        O210   1.258       .  A
C200        O201   1.258       .  A
C200        C299   1.478       .  S
O201       Al203   1.903       .  S
O202        C204   1.259       .  A
O202       Al203   1.868       .  S
Al203       O211   1.874       .  S
Al203       O213   1.913       .  S
Al203       O212   1.775       .  S
C204        O217   1.267       .  A
C204        C536   1.465       .  S
O205        C215   1.262       .  A
O205       Al207   1.899       .  S
O206        C219   1.259       .  A
O206       Al216   1.880       .  S
Al207       O220   1.915       .  S
Al207       O217   1.945       .  S
Al207       O212   1.783       .  S
O208        C215   1.266       .  A
O208       Al216   1.918       .  S
O209        C218   1.270       .  A
O209       Al216   1.940       .  S
O210       Al216   1.899       .  S
O211        C218   1.260       .  A
O212       Al216   1.778       .  S
O213        C214   1.260       .  A
C214        C526   1.474       .  S
C215        C329   1.487       .  S
C218        C289   1.483       .  S
C219        O220   1.262       .  A
C219        C339   1.476       .  S
O221        C236   1.262       .  A
O221       Al853   1.913       .  S
C222        O232   1.259       .  A
C222        O223   1.262       .  A
C222        C499   1.484       .  S
O223       Al849   1.916   1_554  S
O224        C226   1.257       .  A
O224       Al849   1.857   1_554  S
Al225       O233   1.880       .  S
Al225       O235   1.910       .  S
Al225       O847   1.914       .  S
Al225       O848   1.856       .  S
Al225       O234   1.780       .  S
C226        O239   1.267       .  A
C226        C359   1.467       .  S
O227        C237   1.263       .  A
O227       Al229   1.912   1_554  S
O228        C241   1.259       .  A
O228       Al238   1.877       .  S
Al229       O239   1.943   1_556  S
Al229       O845   1.911       .  S
Al229       O866   1.929       .  S
Al229       O858   1.791       .  S
O230        C237   1.264       .  A
O230       Al862   1.916       .  S
O231        C240   1.266       .  A
O231       Al238   1.935       .  S
O232       Al862   1.897       .  S
O233        C240   1.258       .  A
O234       Al238   1.782       .  S
O234       Al853   1.790       .  S
O235        C236   1.260       .  A
C236        C349   1.478       .  S
C237        C279   1.492       .  S
Al238       O854   1.918       .  S
Al238       O856   1.895       .  S
C240        C489   1.483       .  S
C241        O242   1.265       .  A
C241        C269   1.480       .  S
O242       Al853   1.926       .  S
O243        C258   1.259       .  A
O243       Al251   1.907       .  S
C244        O254   1.257       .  A
C244        O245   1.260       .  A
C244        C479   1.483       .  S
O245       Al247   1.912       .  S
O246        C248   1.257       .  A
O246       Al247   1.858       .  S
Al247       O255   1.882       .  S
Al247       O257   1.919       .  S
Al247       O256   1.781       .  S
C248        O261   1.267       .  A
C248        C316   1.465       .  S
O249        C259   1.263       .  A
O249       Al251   1.907       .  S
O250        C263   1.257       .  A
O250       Al260   1.877       .  S
Al251       O264   1.922       .  S
Al251       O261   1.947       .  S
Al251       O256   1.793       .  S
O252        C259   1.266       .  A
O252       Al260   1.918       .  S
O253        C262   1.268       .  A
O253       Al260   1.934       .  S
O254       Al260   1.901       .  S
O255        C262   1.261       .  A
O256       Al260   1.781       .  S
O257        C258   1.260       .  A
C258        C309   1.472       .  S
C259        C276   1.489       .  S
C262        C469   1.480       .  S
C263        O264   1.263       .  A
C263        C266   1.483       .  S
C265        C266   1.407       .  A
C265        C270   1.402       .  A
C265        H272   1.083       .  S
C266        C267   1.409       .  A
C267        C268   1.392       .  A
C267        F274   1.358       .  S
C268        C269   1.404       .  A
C268        H273   1.084       .  S
C269        C270   1.408       .  A
C270        F271   1.357       .  S
C275        C276   1.404       .  A
C275        C280   1.397       .  A
C275        H282   1.084       .  S
C276        C277   1.410       .  A
C277        C278   1.407       .  A
C277        F284   1.357       .  S
C278        C279   1.409       .  A
C278        H283   1.083       .  S
C279        C280   1.410       .  A
C280        F281   1.357       .  S
C285        C286   1.400       .  A
C285        C290   1.395       .  A
C285        H292   1.084       .  S
C286        C287   1.407       .  A
C287        C288   1.399       .  A
C287        F294   1.357       .  S
C288        C289   1.406       .  A
C288        H293   1.083       .  S
C289        C290   1.412       .  A
C290        F291   1.358       .  S
C295        C296   1.402       .  A
C295        C300   1.391       .  A
C295        H302   1.084       .  S
C296        C297   1.407       .  A
C297        C298   1.401       .  A
C297        F304   1.357       .  S
C298        C299   1.406       .  A
C298        H303   1.083       .  S
C299        C300   1.409       .  A
C300        F301   1.358       .  S
C305        C306   1.406   1_565  A
C305        C310   1.398       .  A
C305        H312   1.084       .  S
C306        C307   1.405       .  A
C307        C308   1.401       .  A
C307        F314   1.357       .  S
C308        C309   1.405   1_545  A
C308        H313   1.083       .  S
C309        C310   1.403       .  A
C310        F311   1.358       .  S
C315        C316   1.405       .  A
C315        C320   1.406   1_565  A
C315        H322   1.083   1_565  S
C316        C317   1.402       .  A
C317        C318   1.387       .  A
C317        F324   1.359       .  S
C318        C319   1.400   1_565  A
C318        H323   1.084       .  S
C319        C320   1.405       .  A
C320        F321   1.357       .  S
C325        C326   1.404       .  A
C325        C330   1.403       .  A
C325        H332   1.083       .  S
C326        C327   1.406       .  A
C327        C328   1.396       .  A
C327        F334   1.358       .  S
C328        C329   1.406       .  A
C328        H333   1.083       .  S
C329        C330   1.412       .  A
C330        F331   1.357       .  S
C335        C336   1.406       .  A
C335        C340   1.401       .  A
C335        H342   1.083       .  S
C336        C337   1.411       .  A
C337        C338   1.392       .  A
C337        F344   1.358       .  S
C338        C339   1.401       .  A
C338        H343   1.084       .  S
C339        C340   1.408       .  A
C340        F341   1.357       .  S
C345        C346   1.404   1_455  A
C345        C350   1.402       .  A
C345        H352   1.083       .  S
C346        C347   1.403       .  A
C347        C348   1.399       .  A
C347        F354   1.358       .  S
C348        C349   1.406   1_655  A
C348        H353   1.084       .  S
C349        C350   1.406       .  A
C350        F351   1.357       .  S
C355        C356   1.405       .  A
C355        C360   1.405   1_655  A
C355        H362   1.083       .  S
C356        C357   1.403       .  A
C357        C358   1.386       .  A
C357        F364   1.359       .  S
C358        C359   1.402   1_655  A
C358        H363   1.084       .  S
C359        C360   1.405       .  A
C360        F361   1.357       .  S
C365        C366   1.406       .  A
C365        C370   1.403       .  A
C365        H372   1.083       .  S
C366        C367   1.409       .  A
C367        C368   1.401       .  A
C367        F374   1.358       .  S
C368        C369   1.408       .  A
C368        H373   1.083       .  S
C369        C370   1.409       .  A
C370        F371   1.357       .  S
C375        C376   1.402       .  A
C375        C380   1.393       .  A
C375        H382   1.084       .  S
C376        C377   1.409       .  A
C377        C378   1.402       .  A
C377        F384   1.357       .  S
C378        C379   1.406       .  A
C378        H383   1.083       .  S
C379        C380   1.411       .  A
C380        F381   1.357       .  S
C385        C386   1.406       .  A
C385        C390   1.393       .  A
C385        H392   1.083       .  S
C386        C387   1.410       .  A
C387        C388   1.402       .  A
C387        F394   1.357       .  S
C388        C389   1.406       .  A
C388        H393   1.083       .  S
C389        C390   1.407       .  A
C390        F391   1.358       .  S
C395        C396   1.399       .  A
C395        C400   1.393       .  A
C395        H402   1.084       .  S
C396        C397   1.404       .  A
C397        C398   1.400       .  A
C397        F404   1.358       .  S
C398        C399   1.408       .  A
C398        H403   1.083       .  S
C399        C400   1.411       .  A
C400        F401   1.357       .  S
C405        C406   1.405       .  A
C405        C410   1.402       .  A
C405        H412   1.083       .  S
C406        C407   1.409       .  A
C407        C408   1.397       .  A
C407        F414   1.358       .  S
C408        C409   1.405       .  A
C408        H413   1.083       .  S
C409        C410   1.412       .  A
C410        F411   1.357       .  S
C415        C416   1.407       .  A
C415        C420   1.405       .  A
C415        H422   1.083       .  S
C416        C417   1.409       .  A
C417        C418   1.398       .  A
C417        F424   1.358       .  S
C418        C419   1.407       .  A
C418        H423   1.083       .  S
C419        C420   1.410       .  A
C420        F421   1.357       .  S
C425        C426   1.408       .  A
C425        C430   1.397       .  A
C425        H432   1.083       .  S
C426        C427   1.410       .  A
C427        C428   1.399       .  A
C427        F434   1.357       .  S
C428        C429   1.404       .  A
C428        H433   1.084       .  S
C429        C430   1.406       .  A
C430        F431   1.358       .  S
C435        C436   1.406       .  A
C435        C440   1.399       .  A
C435        H442   1.083       .  S
C436        C437   1.407       .  A
C437        C438   1.399       .  A
C437        F444   1.357       .  S
C438        C439   1.405       .  A
C438        H443   1.083       .  S
C439        C440   1.409       .  A
C440        F441   1.358       .  S
C445        C446   1.403       .  A
C445        C450   1.402       .  A
C445        H452   1.083       .  S
C446        C447   1.409   1_545  A
C447        C448   1.402       .  A
C447        F454   1.358       .  S
C448        C449   1.403       .  A
C448        H453   1.084       .  S
C449        C450   1.407   1_565  A
C450        F451   1.357       .  S
C455        C456   1.400       .  A
C455        C460   1.387       .  A
C455        H462   1.085       .  S
C456        C457   1.408       .  A
C457        C458   1.410   1_565  A
C457        F464   1.357       .  S
C458        C459   1.406       .  A
C458        H463   1.083       .  S
C459        C460   1.404   1_545  A
C460        F461   1.358       .  S
C465        C466   1.408       .  A
C465        C470   1.401       .  A
C465        H472   1.083       .  S
C466        C467   1.410       .  A
C467        C468   1.396       .  A
C467        F474   1.358       .  S
C468        C469   1.404       .  A
C468        H473   1.084       .  S
C469        C470   1.407       .  A
C470        F471   1.357       .  S
C475        C476   1.407       .  A
C475        C480   1.404       .  A
C475        H482   1.083       .  S
C476        C477   1.409       .  A
C477        C478   1.396       .  A
C477        F484   1.358       .  S
C478        C479   1.404       .  A
C478        H483   1.084       .  S
C479        C480   1.409       .  A
C480        F481   1.357       .  S
C485        C486   1.406       .  A
C485        C490   1.396       .  A
C485        H492   1.084       .  S
C486        C487   1.410       .  A
C487        C488   1.402       .  A
C487        F494   1.357       .  S
C488        C489   1.405       .  A
C488        H493   1.083       .  S
C489        C490   1.409       .  A
C490        F491   1.358       .  S
C495        C496   1.404       .  A
C495        C500   1.396       .  A
C495        H502   1.083       .  S
C496        C497   1.406       .  A
C497        C498   1.401       .  A
C497        F504   1.357       .  S
C498        C499   1.407       .  A
C498        H503   1.082       .  S
C499        C500   1.409       .  A
C500        F501   1.358       .  S
C505        C506   1.402       .  A
C505        C510   1.401       .  A
C505        H512   1.084       .  S
C506        C507   1.408   1_655  A
C507        C508   1.401       .  A
C507        F514   1.358       .  S
C508        C509   1.402       .  A
C508        H513   1.084       .  S
C509        C510   1.408   1_455  A
C510        F511   1.358       .  S
C515        C516   1.404   1_655  A
C515        C520   1.402       .  A
C515        H522   1.083       .  S
C516        C517   1.401       .  A
C517        C518   1.390       .  A
C517        F524   1.358       .  S
C518        C519   1.400   1_455  A
C518        H523   1.084       .  S
C519        C520   1.404       .  A
C520        F521   1.357       .  S
C525        C526   1.405       .  A
C525        C530   1.397       .  A
C525        H532   1.084       .  S
C526        C527   1.406       .  A
C527        C528   1.400       .  A
C527        F534   1.358       .  S
C528        C529   1.404       .  A
C528        H533   1.083       .  S
C529        C530   1.402       .  A
C530        F531   1.358       .  S
C535        C536   1.406       .  A
C535        C540   1.405       .  A
C535        H542   1.083       .  S
C536        C537   1.402       .  A
C537        C538   1.388       .  A
C537        F544   1.359       .  S
C538        C539   1.401       .  A
C538        H543   1.084       .  S
C539        C540   1.404       .  A
C540        F541   1.357       .  S
C545        C546   1.408       .  A
C545        C550   1.402       .  A
C545        H552   1.083       .  S
C546        C547   1.409       .  A
C547        C548   1.394       .  A
C547        F554   1.358       .  S
C548        C549   1.405       .  A
C548        H553   1.083       .  S
C549        C550   1.407       .  A
C550        F551   1.357       .  S
C555        C556   1.403       .  A
C555        C560   1.398       .  A
C555        H562   1.084       .  S
C556        C557   1.406       .  A
C557        C558   1.406       .  A
C557        F564   1.357       .  S
C558        C559   1.411       .  A
C558        H563   1.083       .  S
C559        C560   1.411       .  A
C560        F561   1.357       .  S
C565        C566   1.407       .  A
C565        C570   1.402       .  A
C565        H572   1.083       .  S
C566        C567   1.405       .  A
C567        C568   1.400       .  A
C567        F574   1.357       .  S
C568        C569   1.404       .  A
C568        H573   1.084       .  S
C569        C570   1.404       .  A
C570        F571   1.358       .  S
C575        C576   1.402       .  A
C575        C580   1.388       .  A
C575        H582   1.084       .  S
C576        C577   1.406       .  A
C577        C578   1.408       .  A
C577        F584   1.357       .  S
C578        C579   1.407       .  A
C578        H583   1.083       .  S
C579        C580   1.405       .  A
C580        F581   1.359       .  S
C585        C586   1.406       .  A
C585        C590   1.399       .  A
C585        H592   1.083       .  S
C586        C587   1.408       .  A
C587        C588   1.393       .  A
C587        F594   1.358       .  S
C588        C589   1.403       .  A
C588        H593   1.084       .  S
C589        C590   1.407       .  A
C590        F591   1.357       .  S
C595        C596   1.405       .  A
C595        C600   1.401       .  A
C595        H602   1.084       .  S
C596        C597   1.404       .  A
C597        C598   1.392       .  A
C597        F604   1.358       .  S
C598        C599   1.407       .  A
C598        H603   1.083       .  S
C599        C600   1.409       .  A
C600        F601   1.357       .  S
C605        C606   1.403       .  A
C605        C610   1.398       .  A
C605        H612   1.084       .  S
C606        C607   1.408       .  A
C607        C608   1.406       .  A
C607        F614   1.357       .  S
C608        C609   1.409       .  A
C608        H613   1.083       .  S
C609        C610   1.412       .  A
C610        F611   1.358       .  S
C615        C616   1.405       .  A
C615        C620   1.401       .  A
C615        H622   1.083       .  S
C616        C617   1.407       .  A
C617        C618   1.394       .  A
C617        F624   1.358       .  S
C618        C619   1.406       .  A
C618        H623   1.083       .  S
C619        C620   1.410       .  A
C620        F621   1.357       .  S
O625        C640   1.261       .  A
O625       Al633   1.918       .  S
C626        O636   1.257       .  A
C626        O627   1.259       .  A
C626       C1210   1.478       .  S
O627       Al629   1.906       .  S
O628        C630   1.258       .  A
O628       Al629   1.872       .  S
Al629       O637   1.879       .  S
Al629       O639   1.910       .  S
Al629       O638   1.785       .  S
C630        O643   1.267       .  A
C630       C1200   1.466       .  S
O631        C641   1.264       .  A
O631       Al633   1.910       .  S
O632        C645   1.258       .  A
O632       Al642   1.883       .  S
Al633       O646   1.917       .  S
Al633       O643   1.942       .  S
Al633       O638   1.789       .  S
O634        C641   1.265       .  A
O634       Al642   1.917       .  S
O635        C644   1.267       .  A
O635       Al642   1.937       .  S
O636       Al642   1.891       .  S
O637        C644   1.260       .  A
O638       Al642   1.786       .  S
O639        C640   1.259       .  A
C640       C1193   1.477       .  S
C641       C1230   1.488       .  S
C644       C1223   1.486       .  S
C645        O646   1.263       .  A
C645       C1240   1.480       .  S
O647        C662   1.259       .  A
C648        O658   1.256       .  A
C648        O649   1.258       .  A
C648       C1213   1.473       .  S
O650        C652   1.257       .  A
Al651       O659   1.882   1_554  S
Al651       O661   1.909   1_554  S
Al651       O660   1.784   1_554  S
C652        O665   1.269       .  A
C652       C1163   1.465       .  S
O653        C663   1.263       .  A
O653       Al655   1.912       .  S
O654        C667   1.256       .  A
O654       Al664   1.871       .  S
Al655       O665   1.951       .  S
O656        C663   1.262       .  A
O657        C666   1.267       .  A
O657       Al664   1.931       .  S
O659        C666   1.260       .  A
O660       Al664   1.783       .  S
O661        C662   1.257       .  A
C662       C1153   1.468       .  S
C663       C1180   1.482       .  S
C666       C1220   1.480       .  S
C667        O668   1.264       .  A
C667       C1173   1.477       .  S
O669        C684   1.262       .  A
O669       Al677   1.914       .  S
C670        O680   1.258       .  A
C670        O671   1.259       .  A
C670       C1120   1.479       .  S
O671       Al673   1.905       .  S
O672        C674   1.258       .  A
O672       Al673   1.872       .  S
Al673       O681   1.886       .  S
Al673       O683   1.914       .  S
Al673       O682   1.779       .  S
C674        O687   1.265       .  A
C674       C1140   1.459       .  S
O675        C685   1.264       .  A
O675       Al677   1.905       .  S
O676        C689   1.257       .  A
O676       Al686   1.881       .  S
Al677       O690   1.918       .  S
Al677       O687   1.937       .  S
Al677       O682   1.788       .  S
O678        C685   1.267       .  A
O678       Al686   1.925       .  S
O679        C688   1.269       .  A
O679       Al686   1.938       .  S
O680       Al686   1.899       .  S
O681        C688   1.263       .  A
O682       Al686   1.779       .  S
O683        C684   1.260       .  A
C684       C1133   1.474       .  S
C685       C1183   1.493       .  S
C688       C1110   1.487       .  S
C689        O690   1.262       .  A
C689       C1170   1.483       .  S
O691        C706   1.261       .  A
C692        O702   1.259       .  A
C692        O693   1.261       .  A
C692       C1100   1.485       .  S
O694        C696   1.258       .  A
Al695       O703   1.884   1_554  S
Al695       O705   1.918   1_554  S
Al695       O704   1.777       .  S
C696        O709   1.268       .  A
C696       C1080   1.471       .  S
O697        C707   1.264       .  A
O697       Al699   1.913       .  S
O698        C711   1.259       .  A
O698       Al708   1.881       .  S
Al699       O709   1.953       .  S
O700        C707   1.264       .  A
O701        C710   1.268       .  A
O701       Al708   1.932       .  S
O703        C710   1.261       .  A
O704       Al708   1.782   1_554  S
O705        C706   1.260       .  A
C706       C1073   1.479       .  S
C707       C1233   1.494       .  S
C710       C1090   1.484       .  S
C711        O712   1.265       .  A
C711       C1243   1.485       .  S
O713        C728   1.261       .  A
C714        O724   1.260       .  A
C714        O715   1.261       .  A
C714       C1063   1.483       .  S
O716        C718   1.255       .  A
Al717       O725   1.888   1_554  S
Al717       O727   1.907   1_554  S
Al717       O726   1.790       .  S
C718        O731   1.263       .  A
C718       C1143   1.459       .  S
O719        C729   1.263       .  A
O719       Al721   1.914       .  S
O720        C733   1.261       .  A
O720       Al730   1.893   1_556  S
Al721       O731   1.926       .  S
O722        C729   1.263       .  A
O723        C732   1.262       .  A
O723       Al730   1.913   1_556  S
O725        C732   1.259       .  A
O726       Al730   1.788       .  S
O727        C728   1.260       .  A
C728       C1130   1.474       .  S
C729       C1043   1.493       .  S
C732       C1053   1.475       .  S
C733        O734   1.263       .  A
C733       C1033   1.487       .  S
O735        C750   1.263       .  A
O735       Al743   1.924       .  S
C736        O746   1.256       .  A
C736        O737   1.258       .  A
C736       C1023   1.479       .  S
O737       Al739   1.905       .  S
O738        C740   1.260       .  A
O738       Al739   1.869       .  S
Al739       O747   1.879       .  S
Al739       O749   1.909       .  S
Al739       O748   1.781       .  S
C740        O753   1.269       .  A
C740       C1083   1.472       .  S
O741        C751   1.264       .  A
O741       Al743   1.912       .  S
O742        C755   1.257       .  A
O742       Al752   1.877       .  S
Al743       O756   1.929       .  S
Al743       O753   1.952       .  S
Al743       O748   1.787       .  S
O744        C751   1.265       .  A
O744       Al752   1.916       .  S
O745        C754   1.269       .  A
O745       Al752   1.938       .  S
O746       Al752   1.892       .  S
O747        C754   1.261       .  A
O748       Al752   1.784       .  S
O749        C750   1.258       .  A
C750       C1070   1.481       .  S
C751       C1040   1.491       .  S
C754       C1010   1.484       .  S
C755        O756   1.265       .  A
C755       C1030   1.484       .  S
O757        C772   1.259       .  A
O757       Al765   1.911       .  S
C758        O768   1.257       .  A
C758        O759   1.258       .  A
C758       C1060   1.480       .  S
O759       Al761   1.912       .  S
O760        C762   1.259       .  A
O760       Al761   1.857       .  S
Al761       O769   1.885       .  S
Al761       O771   1.913       .  S
Al761       O770   1.784       .  S
C762        O775   1.268       .  A
C762        C980   1.462       .  S
O763        C773   1.262       .  A
O763       Al765   1.902       .  S
O764        C777   1.259       .  A
O764       Al774   1.882       .  S
Al765       O778   1.912       .  S
Al765       O775   1.943       .  S
Al765       O770   1.787       .  S
O766        C773   1.264       .  A
O766       Al774   1.917       .  S
O767        C776   1.270       .  A
O767       Al774   1.934       .  S
O768       Al774   1.897       .  S
O769        C776   1.263       .  A
O770       Al774   1.778       .  S
O771        C772   1.257       .  A
C772        C970   1.472       .  S
C773        C990   1.488       .  S
C776       C1050   1.483       .  S
C777        O778   1.261       .  A
C777       C1000   1.479       .  S
O779        C794   1.262       .  A
C780        O790   1.255       .  A
C780        O781   1.260       .  A
C780       C1020   1.463       .  S
O782        C784   1.256       .  A
Al783       O791   1.882   1_554  S
Al783       O793   1.910   1_554  S
Al783       O792   1.780       .  S
C784        O797   1.266       .  A
C784        C943   1.467       .  S
O785        C795   1.261       .  A
O785       Al787   1.899       .  S
O786        C799   1.254       .  A
O786       Al796   1.866   1_556  S
Al787       O797   1.944       .  S
O788        C795   1.264       .  A
O789        C798   1.264       .  A
O789       Al796   1.924   1_556  S
O791        C798   1.259       .  A
O792       Al796   1.785       .  S
O793        C794   1.261       .  A
C794        C930   1.477       .  S
C795        C950   1.478       .  S
C798       C1013   1.480       .  S
C799        O800   1.264       .  A
C799        C960   1.480       .  S
O801        C816   1.260       .  A
C802        O812   1.256       .  A
C802        O803   1.259       .  A
C802        C920   1.471       .  S
O804        C806   1.259       .  A
Al805       O813   1.886   1_554  S
Al805       O815   1.916   1_554  S
Al805       O814   1.782   1_554  S
C806        O819   1.267       .  A
C806       C1203   1.467       .  S
O807        C817   1.264       .  A
O807       Al809   1.910       .  S
O808        C821   1.255       .  A
O808       Al818   1.867       .  S
Al809       O819   1.945       .  S
O810        C817   1.264       .  A
O811        C820   1.266       .  A
O811       Al818   1.920       .  S
O813        C820   1.262       .  A
O814       Al818   1.781       .  S
O815        C816   1.259       .  A
C816       C1190   1.479       .  S
C817        C993   1.491       .  S
C820        C910   1.471       .  S
C821        O822   1.267       .  A
C821       C1003   1.485       .  S
O823        C838   1.260       .  A
O823       Al831   1.908       .  S
C824        O834   1.258       .  A
C824        O825   1.258       .  A
C824        C923   1.476       .  S
O825       Al827   1.901       .  S
O826        C828   1.259       .  A
O826       Al827   1.869       .  S
Al827       O835   1.874       .  S
Al827       O837   1.911       .  S
Al827       O836   1.773       .  S
C828        O841   1.268       .  A
C828       C1160   1.466       .  S
O829        C839   1.263       .  A
O829       Al831   1.899       .  S
O830        C843   1.258       .  A
O830       Al840   1.877       .  S
Al831       O844   1.916       .  S
Al831       O841   1.946       .  S
Al831       O836   1.783       .  S
O832        C839   1.266       .  A
O832       Al840   1.915       .  S
O833        C842   1.270       .  A
O833       Al840   1.937       .  S
O834       Al840   1.898       .  S
O835        C842   1.260       .  A
O836       Al840   1.778       .  S
O837        C838   1.260       .  A
C838       C1150   1.474       .  S
C839        C953   1.486       .  S
C842        C913   1.480       .  S
C843        O844   1.262       .  A
C843        C963   1.475       .  S
O845        C860   1.261       .  A
C846        O856   1.259       .  A
C846        O847   1.262       .  A
C846       C1123   1.480       .  S
O848        C850   1.256       .  A
Al849       O857   1.881       .  S
Al849       O859   1.911       .  S
Al849       O858   1.780       .  S
C850        O863   1.266       .  A
C850        C983   1.464       .  S
O851        C861   1.264       .  A
O851       Al853   1.914       .  S
O852        C865   1.259       .  A
O852       Al862   1.877   1_556  S
Al853       O863   1.938       .  S
O854        C861   1.264       .  A
O855        C864   1.267       .  A
O855       Al862   1.936   1_556  S
O857        C864   1.258       .  A
O858       Al862   1.782   1_556  S
O859        C860   1.260       .  A
C860        C973   1.477       .  S
C861        C903   1.494       .  S
C864       C1113   1.483       .  S
C865        O866   1.266       .  A
C865        C893   1.482       .  S
O867        C882   1.259       .  A
O867       Al875   1.909       .  S
C868        O878   1.257       .  A
C868        O869   1.260       .  A
C868       C1103   1.481       .  S
O869       Al871   1.911       .  S
O870        C872   1.257       .  A
O870       Al871   1.857       .  S
Al871       O879   1.880       .  S
Al871       O881   1.919       .  S
Al871       O880   1.783       .  S
C872        O885   1.268       .  A
C872        C940   1.467       .  S
O873        C883   1.263       .  A
O873       Al875   1.908       .  S
O874        C887   1.257       .  A
O874       Al884   1.879       .  S
Al875       O888   1.923       .  S
Al875       O885   1.950       .  S
Al875       O880   1.792       .  S
O876        C883   1.266       .  A
O876       Al884   1.919       .  S
O877        C886   1.268       .  A
O877       Al884   1.934       .  S
O878       Al884   1.900       .  S
O879        C886   1.261       .  A
O880       Al884   1.782       .  S
O881        C882   1.260       .  A
C882        C933   1.474       .  S
C883        C900   1.490       .  S
C886       C1093   1.479       .  S
C887        O888   1.264       .  A
C887        C890   1.484       .  S
C889        C890   1.407       .  A
C889        C894   1.402       .  A
C889        H896   1.083       .  S
C890        C891   1.409       .  A
C891        C892   1.393       .  A
C891        F898   1.358       .  S
C892        C893   1.405       .  A
C892        H897   1.083       .  S
C893        C894   1.409       .  A
C894        F895   1.357       .  S
C899        C900   1.404       .  A
C899        C904   1.399       .  A
C899        H906   1.084       .  S
C900        C901   1.410       .  A
C901        C902   1.407       .  A
C901        F908   1.357       .  S
C902        C903   1.409       .  A
C902        H907   1.083       .  S
C903        C904   1.411       .  A
C904        F905   1.357       .  S
C909        C910   1.400       .  A
C909        C914   1.393       .  A
C909        H916   1.084       .  S
C910        C911   1.406       .  A
C911        C912   1.398       .  A
C911        F918   1.357       .  S
C912        C913   1.406       .  A
C912        H917   1.083       .  S
C913        C914   1.411       .  A
C914        F915   1.358       .  S
C919        C920   1.401       .  A
C919        C924   1.389       .  A
C919        H926   1.084       .  S
C920        C921   1.406       .  A
C921        C922   1.401       .  A
C921        F928   1.357       .  S
C922        C923   1.406       .  A
C922        H927   1.083       .  S
C923        C924   1.408       .  A
C924        F925   1.358       .  S
C929        C930   1.406   1_565  A
C929        C934   1.399       .  A
C929        H936   1.084       .  S
C930        C931   1.405       .  A
C931        C932   1.402       .  A
C931        F938   1.357       .  S
C932        C933   1.405   1_545  A
C932        H937   1.083       .  S
C933        C934   1.404       .  A
C934        F935   1.358       .  S
C939        C940   1.406       .  A
C939        C944   1.407   1_565  A
C939        H946   1.083       .  S
C940        C941   1.403       .  A
C941        C942   1.387       .  A
C941        F948   1.359       .  S
C942        C943   1.400   1_565  A
C942        H947   1.084       .  S
C943        C944   1.406       .  A
C944        F945   1.357       .  S
C949        C950   1.404       .  A
C949        C954   1.402       .  A
C949        H956   1.083       .  S
C950        C951   1.406       .  A
C951        C952   1.395       .  A
C951        F958   1.358       .  S
C952        C953   1.406       .  A
C952        H957   1.083       .  S
C953        C954   1.411       .  A
C954        F955   1.357       .  S
C959        C960   1.406       .  A
C959        C964   1.400       .  A
C959        H966   1.083       .  S
C960        C961   1.410       .  A
C961        C962   1.391       .  A
C961        F968   1.358       .  S
C962        C963   1.402       .  A
C962        H967   1.084       .  S
C963        C964   1.407       .  A
C964        F965   1.357       .  S
C969        C970   1.405   1_455  A
C969        C974   1.402       .  A
C969        H976   1.083       .  S
C970        C971   1.403       .  A
C971        C972   1.399       .  A
C971        F978   1.358       .  S
C972        C973   1.406   1_655  A
C972        H977   1.084       .  S
C973        C974   1.405       .  A
C974        F975   1.357       .  S
C979        C980   1.405       .  A
C979        C984   1.404   1_655  A
C979        H986   1.083       .  S
C980        C981   1.402       .  A
C981        C982   1.385       .  A
C981        F988   1.359       .  S
C982        C983   1.401   1_655  A
C982        H987   1.084       .  S
C983        C984   1.404       .  A
C984        F985   1.357       .  S
C989        C990   1.406       .  A
C989        C994   1.403       .  A
C989        H996   1.083       .  S
C990        C991   1.408       .  A
C991        C992   1.400       .  A
C991        F998   1.358       .  S
C992        C993   1.408       .  A
C992        H997   1.083       .  S
C993        C994   1.409       .  A
C994        F995   1.357       .  S
C999       C1000   1.401       .  A
C999       C1004   1.392       .  A
C999       H1006   1.084       .  S
C1000      C1001   1.409       .  A
C1001      C1002   1.402       .  A
C1001      F1008   1.357       .  S
C1002      C1003   1.406       .  A
C1002      H1007   1.083       .  S
C1003      C1004   1.412       .  A
C1004      F1005   1.357       .  S
C1009      C1010   1.406       .  A
C1009      C1014   1.394       .  A
C1009      H1016   1.083       .  S
C1010      C1011   1.409       .  A
C1011      C1012   1.402       .  A
C1011      F1018   1.357       .  S
C1012      C1013   1.406       .  A
C1012      H1017   1.083       .  S
C1013      C1014   1.407       .  A
C1014      F1015   1.358       .  S
C1019      C1020   1.399       .  A
C1019      C1024   1.393       .  A
C1019      H1026   1.084       .  S
C1020      C1021   1.403       .  A
C1021      C1022   1.399       .  A
C1021      F1028   1.358       .  S
C1022      C1023   1.408       .  A
C1022      H1027   1.083       .  S
C1023      C1024   1.411       .  A
C1024      F1025   1.358       .  S
C1029      C1030   1.404       .  A
C1029      C1034   1.401       .  A
C1029      H1036   1.083       .  S
C1030      C1031   1.410       .  A
C1031      C1032   1.397       .  A
C1031      F1038   1.358       .  S
C1032      C1033   1.405       .  A
C1032      H1037   1.083       .  S
C1033      C1034   1.411       .  A
C1034      F1035   1.357       .  S
C1039      C1040   1.407       .  A
C1039      C1044   1.406       .  A
C1039      H1046   1.083       .  S
C1040      C1041   1.409       .  A
C1041      C1042   1.399       .  A
C1041      F1048   1.358       .  S
C1042      C1043   1.408       .  A
C1042      H1047   1.083       .  S
C1043      C1044   1.410       .  A
C1044      F1045   1.357       .  S
C1049      C1050   1.408       .  A
C1049      C1054   1.397       .  A
C1049      H1056   1.083       .  S
C1050      C1051   1.410       .  A
C1051      C1052   1.398       .  A
C1051      F1058   1.357       .  S
C1052      C1053   1.403       .  A
C1052      H1057   1.084       .  S
C1053      C1054   1.405       .  A
C1054      F1055   1.358       .  S
C1059      C1060   1.405       .  A
C1059      C1064   1.399       .  A
C1059      H1066   1.084       .  S
C1060      C1061   1.406       .  A
C1061      C1062   1.399       .  A
C1061      F1068   1.357       .  S
C1062      C1063   1.406       .  A
C1062      H1067   1.083       .  S
C1063      C1064   1.410       .  A
C1064      F1065   1.358       .  S
C1069      C1070   1.403       .  A
C1069      C1074   1.403       .  A
C1069      H1076   1.083       .  S
C1070      C1071   1.410   1_545  A
C1071      C1072   1.402       .  A
C1071      F1078   1.358       .  S
C1072      C1073   1.403       .  A
C1072      H1077   1.084       .  S
C1073      C1074   1.407   1_565  A
C1074      F1075   1.357       .  S
C1079      C1080   1.400       .  A
C1079      C1084   1.387       .  A
C1079      H1086   1.085       .  S
C1080      C1081   1.408       .  A
C1081      C1082   1.409   1_565  A
C1081      F1088   1.357       .  S
C1082      C1083   1.406       .  A
C1082      H1087   1.083       .  S
C1083      C1084   1.404   1_545  A
C1084      F1085   1.358       .  S
C1089      C1090   1.408       .  A
C1089      C1094   1.401       .  A
C1089      H1096   1.083       .  S
C1090      C1091   1.410       .  A
C1091      C1092   1.395       .  A
C1091      F1098   1.358       .  S
C1092      C1093   1.404       .  A
C1092      H1097   1.084       .  S
C1093      C1094   1.407       .  A
C1094      F1095   1.357       .  S
C1099      C1100   1.407       .  A
C1099      C1104   1.403       .  A
C1099      H1106   1.083       .  S
C1100      C1101   1.409       .  A
C1101      C1102   1.396       .  A
C1101      F1108   1.358       .  S
C1102      C1103   1.404       .  A
C1102      H1107   1.084       .  S
C1103      C1104   1.408       .  A
C1104      F1105   1.357       .  S
C1109      C1110   1.406       .  A
C1109      C1114   1.396       .  A
C1109      H1116   1.083       .  S
C1110      C1111   1.410       .  A
C1111      C1112   1.403       .  A
C1111      F1118   1.357       .  S
C1112      C1113   1.405       .  A
C1112      H1117   1.083       .  S
C1113      C1114   1.408       .  A
C1114      F1115   1.358       .  S
C1119      C1120   1.404       .  A
C1119      C1124   1.395       .  A
C1119      H1126   1.083       .  S
C1120      C1121   1.407       .  A
C1121      C1122   1.401       .  A
C1121      F1128   1.357       .  S
C1122      C1123   1.406       .  A
C1122      H1127   1.082       .  S
C1123      C1124   1.408       .  A
C1124      F1125   1.358       .  S
C1129      C1130   1.401       .  A
C1129      C1134   1.400       .  A
C1129      H1136   1.084       .  S
C1130      C1131   1.408   1_655  A
C1131      C1132   1.400       .  A
C1131      F1138   1.358       .  S
C1132      C1133   1.402       .  A
C1132      H1137   1.084       .  S
C1133      C1134   1.408   1_455  A
C1134      F1135   1.358       .  S
C1139      C1140   1.403   1_655  A
C1139      C1144   1.401       .  A
C1139      H1146   1.083       .  S
C1140      C1141   1.401       .  A
C1141      C1142   1.391       .  A
C1141      F1148   1.358       .  S
C1142      C1143   1.400   1_455  A
C1142      H1147   1.084       .  S
C1143      C1144   1.403       .  A
C1144      F1145   1.357       .  S
C1149      C1150   1.405       .  A
C1149      C1154   1.396       .  A
C1149      H1156   1.084       .  S
C1150      C1151   1.407       .  A
C1151      C1152   1.401       .  A
C1151      F1158   1.358       .  S
C1152      C1153   1.404       .  A
C1152      H1157   1.083       .  S
C1153      C1154   1.402       .  A
C1154      F1155   1.358       .  S
C1159      C1160   1.406       .  A
C1159      C1164   1.405       .  A
C1159      H1166   1.083       .  S
C1160      C1161   1.402       .  A
C1161      C1162   1.388       .  A
C1161      F1168   1.359       .  S
C1162      C1163   1.401       .  A
C1162      H1167   1.084       .  S
C1163      C1164   1.405       .  A
C1164      F1165   1.357       .  S
C1169      C1170   1.408       .  A
C1169      C1174   1.401       .  A
C1169      H1176   1.083       .  S
C1170      C1171   1.409       .  A
C1171      C1172   1.393       .  A
C1171      F1178   1.358       .  S
C1172      C1173   1.404       .  A
C1172      H1177   1.084       .  S
C1173      C1174   1.406       .  A
C1174      F1175   1.357       .  S
C1179      C1180   1.403       .  A
C1179      C1184   1.397       .  A
C1179      H1186   1.084       .  S
C1180      C1181   1.406       .  A
C1181      C1182   1.406       .  A
C1181      F1188   1.357       .  S
C1182      C1183   1.411       .  A
C1182      H1187   1.083       .  S
C1183      C1184   1.410       .  A
C1184      F1185   1.357       .  S
C1189      C1190   1.407       .  A
C1189      C1194   1.403       .  A
C1189      H1196   1.083       .  S
C1190      C1191   1.405       .  A
C1191      C1192   1.400       .  A
C1191      F1198   1.358       .  S
C1192      C1193   1.405       .  A
C1192      H1197   1.084       .  S
C1193      C1194   1.405       .  A
C1194      F1195   1.358       .  S
C1199      C1200   1.402       .  A
C1199      C1204   1.396       .  A
C1199      H1206   1.084       .  S
C1200      C1201   1.403       .  A
C1201      C1202   1.402       .  A
C1201      F1208   1.357       .  S
C1202      C1203   1.404       .  A
C1202      H1207   1.084       .  S
C1203      C1204   1.403       .  A
C1204      F1205   1.358       .  S
C1209      C1210   1.407       .  A
C1209      C1214   1.399       .  A
C1209      H1216   1.083       .  S
C1210      C1211   1.409       .  A
C1211      C1212   1.393       .  A
C1211      F1218   1.358       .  S
C1212      C1213   1.403       .  A
C1212      H1217   1.084       .  S
C1213      C1214   1.405       .  A
C1214      F1215   1.357       .  S
C1219      C1220   1.406       .  A
C1219      C1224   1.402       .  A
C1219      H1226   1.084       .  S
C1220      C1221   1.406       .  A
C1221      C1222   1.394       .  A
C1221      F1228   1.358       .  S
C1222      C1223   1.407       .  A
C1222      H1227   1.083       .  S
C1223      C1224   1.410       .  A
C1224      F1225   1.357       .  S
C1229      C1230   1.404       .  A
C1229      C1234   1.399       .  A
C1229      H1236   1.084       .  S
C1230      C1231   1.409       .  A
C1231      C1232   1.406       .  A
C1231      F1238   1.357       .  S
C1232      C1233   1.409       .  A
C1232      H1237   1.083       .  S
C1233      C1234   1.412       .  A
C1234      F1235   1.358       .  S
C1239      C1240   1.405       .  A
C1239      C1244   1.400       .  A
C1239      H1246   1.083       .  S
C1240      C1241   1.407       .  A
C1241      C1242   1.395       .  A
C1241      F1248   1.358       .  S
C1242      C1243   1.407       .  A
C1242      H1247   1.083       .  S
C1243      C1244   1.409       .  A
C1244      F1245   1.357       .  S
