geometry optimzed in LAMMPS
_audit_creation_date              2020-12-01 
_audit_creation_method            'lammps2cif' 
_symmetry_space_group_name_H-M    'P1' 
_symmetry_Int_Tables_number       1 
_symmetry_cell_setting            triclinic 
loop_ 
_symmetry_equiv_pos_as_xyz 
  x,y,z 
_cell_length_a                    54.7339288 
_cell_length_b                    54.97853222779796 
_cell_length_c                    38.702008159370195 
_cell_angle_alpha                 90.1833512572059 
_cell_angle_beta                  90.00551328530383 
_cell_angle_gamma                 120.3174222356741 
loop_ 
_atom_site_label 
_atom_site_type_symbol 
_atom_site_fract_x 
_atom_site_fract_y 
_atom_site_fract_z 
_atom_site_charge 
Fe1        Fe  0.33175527  0.27368083  0.29070528     1.65800
Fe2        Fe  0.33105322  0.24308017  0.36504715     1.73200
Fe3        Fe  0.27704298  0.25118636  0.34445253     1.54400
O4          O  0.28581741  0.28921728  0.32039104    -0.80500
O5          O  0.29904308  0.20280834  0.35939454    -0.78800
O6          O  0.33030017  0.30922442  0.30146239    -0.83000
O7          O  0.29298487  0.25665571  0.26349530    -0.77900
O8          O  0.29573901  0.27434892  0.38720557    -0.79700
O9          O  0.35440478  0.23631404  0.32537884    -0.82400
C10         C  0.26701557  0.23878365  0.27037014     0.98300
C11         C  0.30800876  0.31005037  0.30742303     1.05800
O12         O  0.31274483  0.25525706  0.33250806    -1.11400
O13         O  0.36208773  0.28378076  0.37026075    -0.73800
O14         O  0.37234426  0.29186918  0.31459902    -0.77300
O15         O  0.25859012  0.22945234  0.30054677    -0.78000
C16         C  0.38013344  0.29435606  0.34633608     0.97300
O17         O  0.33402365  0.23914341  0.27741670    -0.76000
O18         O  0.30963086  0.24688520  0.40925113    -0.81200
C19         C  0.27482853  0.19548220  0.37169409     0.99900
C20         C  0.29632439  0.26031331  0.41224230     1.05800
O21         O  0.26439743  0.21189582  0.37041238    -0.76800
C22         C  0.35104984  0.23352353  0.29249795     1.04100
Fe23       Fe  0.14734997  0.19682942  0.04107601     1.65800
Fe24       Fe  0.14928456  0.22718948  0.11564177     1.73200
Fe25       Fe  0.20371181  0.22100595  0.09250621     1.54400
O26         O  0.19477669  0.18297252  0.06774240    -0.80500
O27         O  0.17994443  0.26777754  0.11024092    -0.78800
O28         O  0.14912603  0.16194897  0.05301638    -0.83000
O29         O  0.18578376  0.21324859  0.01255825    -0.77900
O30         O  0.18682219  0.19768167  0.13538511    -0.79700
O31         O  0.12490577  0.23350136  0.07673439    -0.82400
C32         C  0.21184469  0.23165089  0.01867875     0.98300
C33         C  0.17184707  0.16159924  0.05686604     1.05800
O34         O  0.16757950  0.21622225  0.08197694    -1.11400
O35         O  0.12040692  0.18591737  0.12046660    -0.73800
O36         O  0.10694657  0.17893110  0.06610630    -0.77300
O37         O  0.22048886  0.24257736  0.04826804    -0.78000
C38         C  0.10089266  0.17640307  0.09843047     0.97300
O39         O  0.14477874  0.23103092  0.02793212    -0.76000
O40         O  0.17176079  0.22391800  0.15874031    -0.81200
C41         C  0.20463623  0.27589596  0.12151770     0.99900
C42         C  0.18535572  0.21077409  0.16104082     1.05800
O43         O  0.21591537  0.26021958  0.11920393    -0.76800
C44         C  0.12815543  0.23680030  0.04385151     1.04100
Fe45       Fe  0.20003589  0.03925630  0.45701070     1.65800
Fe46       Fe  0.23044709  0.06823394  0.03179352     1.73200
Fe47       Fe  0.22237001  0.00666719  0.00972751     1.54400
O48         O  0.18423093  0.47767327  0.48472513    -0.80500
O49         O  0.27081183  0.07715736  0.02615545    -0.78800
O50         O  0.16423807  0.50241374  0.46777597    -0.83000
O51         O  0.21642195  0.01728958  0.42921525    -0.77900
O52         O  0.19907052  0.50087885  0.05268690    -0.79700
O53         O  0.23766461  0.09880233  0.49260942    -0.82400
C54         C  0.23438130  0.00943335  0.43596025     0.98300
C55         C  0.16336925  0.47925904  0.47242083     1.05800
O56         O  0.21835555  0.03822722  0.99867723    -1.11400
O57         O  0.18951155  0.05763700  0.03670896    -0.73800
O58         O  0.18229405  0.06176283  0.48142698    -0.77300
O59         O  0.24432736  0.01103833  0.46593834    -0.78000
C60         C  0.17950206  0.06611215  0.01344444     0.97300
O61         O  0.23510417  0.07599871  0.44429116    -0.76000
O62         O  0.22632014  0.04246712  0.07539890    -0.81200
C63         C  0.27828109  0.06032886  0.03759965     0.99900
C64         C  0.21271426  0.01562874  0.07812902     1.05800
O65         O  0.26175930  0.03338214  0.03616033    -0.76800
C66         C  0.24104925  0.09858428  0.45978549     1.04100
Fe67       Fe  0.27544773  0.43126607  0.20789946     1.65800
Fe68       Fe  0.24386050  0.40229119  0.28175648     1.73200
Fe69       Fe  0.25397576  0.46483036  0.26065933     1.54400
O70         O  0.29225653  0.99338774  0.23609651    -0.80500
O71         O  0.20423278  0.39498652  0.27446920    -0.78800
O72         O  0.31156712  0.46802488  0.21908409    -0.83000
O73         O  0.25927409  0.45358220  0.17990811    -0.77900
O74         O  0.27690325  0.46934255  0.30363065    -0.79700
O75         O  0.23673980  0.37170692  0.24263787    -0.82400
C76         C  0.24186545  0.46225115  0.18660889     0.98300
C77         C  0.31284188  0.49140844  0.22374077     1.05800
O78         O  0.25714002  0.43269429  0.24922622    -1.11400
O79         O  0.28415576  0.41136168  0.28816816    -0.73800
O80         O  0.29260026  0.40813304  0.23296729    -0.77300
O81         O  0.23246386  0.46155184  0.21671252    -0.78000
C82         C  0.29457607  0.40312876  0.26505777     0.97300
O83         O  0.24020574  0.39465957  0.19444809    -0.76000
O84         O  0.24815013  0.42793095  0.32552907    -0.81200
C85         C  0.19739912  0.41194773  0.28723888     0.99900
C86         C  0.26260076  0.45469950  0.32866631     1.05800
O87         O  0.21438232  0.43880201  0.28666956    -0.76800
C88         C  0.23415645  0.37206210  0.20972267     1.04100
Fe89       Fe  0.04387532  0.32509920  0.37272851     1.65800
Fe90       Fe  0.07245847  0.32463767  0.44783104     1.73200
Fe91       Fe  0.01040795  0.27049594  0.42598628     1.54400
O92         O  0.48172377  0.27960234  0.40056683    -0.80500
O93         O  0.08078263  0.29296126  0.44296439    -0.78800
O94         O  0.50725296  0.32429046  0.38299263    -0.83000
O95         O  0.02155731  0.28658478  0.34528103    -0.77900
O96         O  0.50455300  0.28815961  0.46871549    -0.79700
O97         O  0.10319576  0.34778327  0.40876915    -0.82400
C98         C  0.01330624  0.26078827  0.35227506     0.98300
C99         C  0.48379909  0.30214737  0.38816115     1.05800
O100        O  0.04229031  0.30623796  0.41484964    -1.11400
O101        O  0.06263542  0.35534650  0.45210984    -0.73800
O102        O  0.06657968  0.36574783  0.39648155    -0.77300
O103        O  0.01472699  0.25258819  0.38234183    -0.78000
C104        C  0.07067259  0.37342649  0.42834000     0.97300
O105        O  0.08037610  0.32618827  0.36105506    -0.76000
O106        O  0.04645348  0.30358630  0.49134034    -0.81200
C107        C  0.06385213  0.26882997  0.45519195     0.99900
C108        C  0.01953403  0.29024352  0.49429645     1.05800
O109        O  0.03679399  0.25806791  0.45326253    -0.76800
C110        C  0.10286507  0.34399724  0.37602498     1.04100
Fe111      Fe  0.43544992  0.14434359  0.12317018     1.65800
Fe112      Fe  0.40511969  0.14591090  0.19681309     1.73200
Fe113      Fe  0.46906172  0.19801883  0.17837598     1.54400
O114        O  0.99766938  0.18818534  0.15496732    -0.80500
O115        O  0.39879184  0.17881058  0.19051880    -0.78800
O116        O  0.47178212  0.14443994  0.13458537    -0.83000
O117        O  0.45852946  0.18327069  0.09666883    -0.77900
O118        O  0.47114539  0.17754218  0.22048379    -0.79700
O119        O  0.37522506  0.12338822  0.15680354    -0.82400
C120        C  0.46807327  0.20934428  0.10424899     0.98300
C121        C  0.99544160  0.16587754  0.14158505     1.05800
O122        O  0.43636523  0.16342022  0.16499958    -1.12000
O123        O  0.41310325  0.11410560  0.20259310    -0.73800
O124        O  0.41172318  0.10380108  0.14687906    -0.77300
O125        O  0.46833935  0.21792165  0.13477035    -0.78000
C126        C  0.40613943  0.09613825  0.17864849     0.97300
O127        O  0.39908799  0.14306333  0.10902450    -0.76000
O128        O  0.42991694  0.16618809  0.24161229    -0.81200
C129        C  0.41614807  0.20242216  0.20390501     0.99900
C130        C  0.45663505  0.17770523  0.24529995     1.05800
O131        O  0.44302659  0.21181629  0.20385113    -0.76800
C132        C  0.37608891  0.12648873  0.12395744     1.04100
C133        C  0.49866330  0.22136271  0.26795018     0.24700
C134        C  0.47186121  0.19719994  0.27427618    -0.23400
C135        C  0.45922051  0.19418708  0.30669868     0.19600
C136        C  0.47313592  0.21476664  0.33226225     0.24700
C137        C  0.49954960  0.23897686  0.32548897    -0.23300
C138        C  0.01212834  0.24211919  0.29319462     0.19600
F139        F  0.03752838  0.26527398  0.28609453    -0.13300
F140        F  0.01141879  0.22578158  0.23663273    -0.15600
F141        F  0.46025269  0.21166902  0.36324405    -0.15600
F142        F  0.43329610  0.17166744  0.31344117    -0.13300
C143        C  0.46591675  0.22753824  0.04616365     0.24700
C144        C  0.48046398  0.23096285  0.07708149    -0.23400
C145        C  0.50702572  0.25548891  0.08222477     0.19600
C146        C  0.01939488  0.27568393  0.05604861     0.24700
C147        C  0.00513198  0.27200777  0.02457303    -0.23300
C148        C  0.47783939  0.24791432  0.02034366     0.19600
F149        F  0.46303205  0.24308947  0.99047162    -0.13300
F150        F  0.44001435  0.20442209  0.04098921    -0.15600
F151        F  0.04554071  0.29843307  0.56121222    -0.15600
F152        F  0.02158811  0.25928477  0.11207801    -0.13300
C153        C  0.14916575  0.38909450  0.36471516     0.24700
C154        C  0.12746731  0.36236050  0.35358292    -0.23400
C155        C  0.12734317  0.35466054  0.31868857     0.19600
C156        C  0.14850945  0.37268384  0.29602304     0.24700
C157        C  0.17086306  0.39873828  0.30743787    -0.23300
C158        C  0.17060965  0.40714807  0.34179074     0.19600
F159        F  0.19200383  0.43204700  0.35380718    -0.13300
F160        F  0.14978226  0.39778038  0.39773957    -0.15600
F161        F  0.14798043  0.36394519  0.26300287    -0.15600
F162        F  0.10703532  0.32922333  0.30634273    -0.13300
C163        C  0.34264578  0.02277011  0.17643752     0.24700
C164        C  0.33849220  0.01676702  0.21193276    -0.23400
C165        C  0.35931804  0.03445226  0.23546606     0.19600
C166        C  0.38339758  0.05882588  0.22390838     0.24700
C167        C  0.38670078  0.06632369  0.18850590    -0.23300
C168        C  0.36655639  0.04734809  0.16473475     0.19600
F169        F  0.36871859  0.05355258  0.13054571    -0.13300
F170        F  0.32274470  0.00548443  0.15324433    -0.15600
F171        F  0.40271858  0.07593536  0.24775901    -0.15600
F172        F  0.35598982  0.02846738  0.26974524    -0.13300
C173        C  0.22517562  0.01312751  0.14043323     0.24700
C174        C  0.21747691  0.00099513  0.10739652    -0.23400
C175        C  0.21720088  0.47543302  0.10099614     0.19600
C176        C  0.22527868  0.46295431  0.12654688     0.24700
C177        C  0.23319065  0.47520283  0.15933011    -0.23300
C178        C  0.23262175  0.00017270  0.16628070     0.19600
F179        F  0.24028387  0.01263974  0.19786724    -0.13300
F180        F  0.22574243  0.03759261  0.14762361    -0.15600
F181        F  0.22508133  0.43867373  0.11930381    -0.15600
F182        F  0.21036411  0.46296712  0.06935875    -0.13300
C183        C  0.24899593  0.50715581  0.37556254     0.24700
C184        C  0.24282220  0.49617809  0.40897040    -0.23400
C185        C  0.24426517  0.97181396  0.41660838     0.19600
C186        C  0.25124991  0.45836172  0.39091247     0.24700
C187        C  0.25768333  0.46950983  0.35744597    -0.23300
C188        C  0.25662601  0.49419817  0.35014259     0.19600
F189        F  0.26159452  0.50516359  0.31778569    -0.13300
F190        F  0.24779652  0.53055984  0.36753913    -0.15600
F191        F  0.25144456  0.43438975  0.39862570    -0.15600
F192        F  0.23779526  0.96037387  0.44871241    -0.13300
C193        C  0.35033782  0.11670989  0.06723326     0.24700
C194        C  0.35088813  0.10880943  0.10177596    -0.23400
C195        C  0.32870298  0.08252957  0.11320609     0.19600
C196        C  0.30631606  0.06499545  0.09092220     0.24700
C197        C  0.30532985  0.07359132  0.05699346    -0.23300
C198        C  0.32783995  0.09942034  0.04531976     0.19600
F199        F  0.32745527  0.10852099  0.01283222    -0.13300
F200        F  0.37121107  0.14167149  0.05469904    -0.15600
F201        F  0.28471164  0.04046600  0.10328030    -0.15600
F202        F  0.32854412  0.07373975  0.14597405    -0.13300
C203        C  0.11865802  0.43492470  0.48526145     0.24700
C204        C  0.13769879  0.45365056  0.46107645    -0.23400
C205        C  0.13160078  0.44844287  0.42562484     0.19600
C206        C  0.10793036  0.42334021  0.41440527     0.24700
C207        C  0.08976929  0.40328669  0.43866365    -0.23300
C208        C  0.09460206  0.41024915  0.47426733     0.19600
F209        F  0.07689691  0.39244381  0.49876346    -0.13300
F210        F  0.12359748  0.44034689  0.01958731    -0.15600
F211        F  0.10395678  0.41799499  0.37995846    -0.15600
F212        F  0.14940423  0.46708014  0.40183970    -0.13300
C213        C  0.04858570  0.15665508  0.08903042     0.24700
C214        C  0.07219121  0.16848429  0.11114557    -0.23400
C215        C  0.06924415  0.17714821  0.14475611     0.19600
C216        C  0.04417039  0.17587139  0.15478664     0.24700
C217        C  0.02113749  0.16514720  0.13216622    -0.23300
C218        C  0.02316664  0.15469749  0.09962783     0.19600
F219        F  0.00104334  0.14416981  0.07720912    -0.13300
F220        F  0.05036503  0.14797688  0.05673829    -0.15600
F221        F  0.04256184  0.18553331  0.18656722    -0.15600
F222        F  0.09115144  0.18862949  0.16754788    -0.13300
C223        C  0.10462066  0.26185652  0.46645901     0.24700
C224        C  0.07720424  0.25570218  0.47560402    -0.23400
C225        C  0.06641764  0.24321661  0.50802834     0.19600
C226        C  0.08316509  0.23793431  0.03111182     0.24700
C227        C  0.11100399  0.24508299  0.02217009    -0.23300
C228        C  0.12129495  0.25693925  0.48938060     0.19600
F229        F  0.14798631  0.26437971  0.97946181    -0.13300
F230        F  0.11583047  0.27368948  0.43540437    -0.15600
F231        F  0.07200784  0.22553690  0.06190752    -0.15600
F232        F  0.04024403  0.23734532  0.51806128    -0.13300
C233        C  0.23269386  0.32586755  0.19805921     0.24700
C234        C  0.22676140  0.34692727  0.18765231    -0.23400
C235        C  0.21695169  0.34581144  0.15362002     0.19600
C236        C  0.21265101  0.32411753  0.13105839     0.24700
C237        C  0.21775421  0.30262551  0.14162024    -0.23300
C238        C  0.22828223  0.30395955  0.17525052     0.19600
F239        F  0.23269529  0.28320092  0.18675590    -0.13300
F240        F  0.24286782  0.32646323  0.23023803    -0.15600
F241        F  0.20223589  0.32347090  0.09897817    -0.15600
F242        F  0.21077689  0.36543661  0.14219869    -0.13300
C243        C  0.17069417  0.09262017  0.05994701     0.24700
C244        C  0.17041370  0.08630459  0.02432372    -0.23400
C245        C  0.16794475  0.10393437  0.99998912     0.19600
C246        C  0.16826037  0.12839909  0.01087509     0.24700
C247        C  0.17145014  0.13584243  0.04605125    -0.23300
C248        C  0.17176339  0.11744274  0.07055221     0.19600
F249        F  0.17325413  0.12359797  0.10477086    -0.13300
F250        F  0.17137370  0.07551774  0.08471200    -0.15600
F251        F  0.16660856  0.14551003  0.98691397    -0.15600
F252        F  0.16687439  0.09849848  0.46560689    -0.13300
C253        C  0.36006403  0.21722927  0.23570610     0.24700
C254        C  0.36863031  0.22609887  0.27010814    -0.23400
C255        C  0.39535396  0.23083265  0.28078643     0.19600
C256        C  0.41263399  0.22621163  0.25787458     0.24700
C257        C  0.40331676  0.21619626  0.22407301    -0.23300
C258        C  0.37714517  0.21248333  0.21315214     0.19600
F259        F  0.36745457  0.20304311  0.18069579    -0.13300
F260        F  0.33459108  0.21228617  0.22383838    -0.15600
F261        F  0.43774085  0.23003336  0.26941331    -0.15600
F262        F  0.40479369  0.23981866  0.31338174    -0.13300
C263        C  0.42841274  0.30297365  0.33121976     0.24700
C264        C  0.40992790  0.30393214  0.35580890    -0.23400
C265        C  0.41768436  0.30696165  0.39114412     0.19600
C266        C  0.44159356  0.30603285  0.40174522     0.24700
C267        C  0.45846782  0.30269822  0.37734990    -0.23300
C268        C  0.45251085  0.30238484  0.34199764     0.19600
F269        F  0.46941359  0.30023809  0.31795282    -0.13300
F270        F  0.42216042  0.30040535  0.29697039    -0.15600
F271        F  0.44809972  0.30801722  0.43587986    -0.15600
F272        F  0.40128844  0.30929461  0.41575037    -0.13300
C273        C  0.22929271  0.24626977  0.45834008     0.24700
C274        C  0.23355414  0.23938935  0.49162141    -0.23400
C275        C  0.25907537  0.23994548  0.49932704     0.19600
C276        C  0.27992008  0.24713551  0.47395347     0.24700
C277        C  0.27591530  0.25459573  0.44069858    -0.23300
C278        C  0.25026943  0.25406301  0.43324554     0.19600
F279        F  0.24479207  0.25994610  0.40107514    -0.13300
F280        F  0.20493178  0.24581045  0.45019512    -0.15600
F281        F  0.30384567  0.24666742  0.48184468    -0.15600
F282        F  0.26342991  0.23261462  0.03124037    -0.13300
C283        C  0.23156220  0.21862254  0.18299582     0.24700
C284        C  0.20474333  0.21545074  0.19015093    -0.23400
C285        C  0.19832809  0.21909481  0.22411332     0.19600
C286        C  0.21833527  0.22579365  0.25044114     0.24700
C287        C  0.24535103  0.22964686  0.24297937    -0.23300
C288        C  0.25167508  0.22589228  0.20907055     0.19600
F289        F  0.27738436  0.22929195  0.20110512    -0.13300
F290        F  0.23900871  0.21607628  0.15027286    -0.15600
F291        F  0.21169436  0.22970033  0.28300859    -0.15600
F292        F  0.17282874  0.21628828  0.23175692    -0.13300
C293        C  0.24982237  0.16763544  0.42489378     0.24700
C294        C  0.26118905  0.16884604  0.39182653    -0.23400
C295        C  0.26566810  0.14683355  0.38164014     0.19600
C296        C  0.26001211  0.12479532  0.40414234     0.24700
C297        C  0.24957427  0.12391009  0.43777645    -0.23300
C298        C  0.24424745  0.14550653  0.44773465     0.19600
F299        F  0.23348823  0.14518453  0.47943036    -0.13300
F300        F  0.24543615  0.18858386  0.43582323    -0.15600
F301        F  0.26539342  0.10451131  0.39296948    -0.15600
F302        F  0.27643539  0.14707338  0.34992902    -0.13300
C303        C  0.31223719  0.34451037  0.26247564     0.24700
C304        C  0.30768032  0.33570193  0.29717552    -0.23400
C305        C  0.30293506  0.35154441  0.32167090     0.19600
C306        C  0.30161907  0.37525389  0.31158999     0.24700
C307        C  0.30401395  0.38314398  0.27625284    -0.23300
C308        C  0.31013468  0.36781869  0.25199475     0.19600
F309        F  0.31262013  0.37436361  0.21790764    -0.13300
F310        F  0.31719254  0.32953860  0.23834816    -0.15600
F311        F  0.29657123  0.38956991  0.33657111    -0.15600
F312        F  0.29937476  0.34392915  0.35546469    -0.13300
Fe313      Fe  0.33175351  0.27367729  0.79070495     1.65800
Fe314      Fe  0.33105435  0.24307808  0.86504699     1.73200
Fe315      Fe  0.27704333  0.25118457  0.84445563     1.54400
O316        O  0.28581679  0.28921508  0.82039488    -0.80500
O317        O  0.29904399  0.20280608  0.85939529    -0.78800
O318        O  0.33029805  0.30922078  0.80146144    -0.83000
O319        O  0.29298205  0.25665044  0.76349677    -0.77900
O320        O  0.29574194  0.27434744  0.88720767    -0.79700
O321        O  0.35440570  0.23631248  0.82537788    -0.82400
C322        C  0.26701265  0.23877977  0.77037320     0.98300
C323        C  0.30800733  0.31004736  0.80742464     1.05800
O324        O  0.31274452  0.25525429  0.83250866    -1.11400
O325        O  0.36208885  0.28377885  0.87025965    -0.73800
O326        O  0.37234302  0.29186704  0.81459726    -0.77300
O327        O  0.25858750  0.22945057  0.80055070    -0.78000
C328        C  0.38013351  0.29435407  0.84633383     0.97300
O329        O  0.33402327  0.23914038  0.77741635    -0.76000
O330        O  0.30963323  0.24688300  0.90925228    -0.81200
C331        C  0.27482958  0.19548045  0.87169528     0.99900
C332        C  0.29632730  0.26031145  0.91224404     1.05800
O333        O  0.26439881  0.21189428  0.87041458    -0.76800
C334        C  0.35105113  0.23352242  0.79249691     1.04100
Fe335      Fe  0.14734646  0.19682617  0.54107695     1.65800
Fe336      Fe  0.14928289  0.22718782  0.61564210     1.73200
Fe337      Fe  0.20370971  0.22100411  0.59250479     1.54400
O338        O  0.19477453  0.18297046  0.56774183    -0.80500
O339        O  0.17994239  0.26777555  0.61023708    -0.78800
O340        O  0.14912373  0.16194634  0.55301624    -0.83000
O341        O  0.18577945  0.21324595  0.51255685    -0.77900
O342        O  0.18682187  0.19768092  0.63538500    -0.79700
O343        O  0.12490144  0.23349718  0.57673601    -0.82400
C344        C  0.21184050  0.23164835  0.51867675     0.98300
C345        C  0.17184503  0.16159709  0.55686549     1.05800
O346        O  0.16757670  0.21621928  0.58197712    -1.11400
O347        O  0.12040499  0.18591626  0.62047070    -0.73800
O348        O  0.10694401  0.17892703  0.56611028    -0.77300
O349        O  0.22048540  0.24257465  0.54826583    -0.78000
C350        C  0.10089040  0.17639904  0.59843464     0.97300
O351        O  0.14477421  0.23102704  0.52793365    -0.76000
O352        O  0.17176124  0.22391797  0.65874000    -0.81200
C353        C  0.20463441  0.27589467  0.62151339     0.99900
C354        C  0.18535551  0.21077333  0.66104087     1.05800
O355        O  0.21591355  0.26021824  0.61920086    -0.76800
C356        C  0.12815014  0.23679524  0.54385291     1.04100
Fe357      Fe  0.20003596  0.03925560  0.95701147     1.65800
Fe358      Fe  0.23044331  0.06823385  0.53179450     1.73200
Fe359      Fe  0.22237383  0.00667067  0.50972503     1.54400
O360        O  0.18421797  0.47766874  0.98472624    -0.80500
O361        O  0.27080991  0.07716161  0.52616095    -0.78800
O362        O  0.16423468  0.50241577  0.96776704    -0.83000
O363        O  0.21641940  0.01728658  0.92921609    -0.77900
O364        O  0.19908041  0.50088305  0.55268546    -0.79700
O365        O  0.23766859  0.09880152  0.99260808    -0.82400
C366        C  0.23437641  0.00942754  0.93596172     0.98300
C367        C  0.16336037  0.47925894  0.97241644     1.05800
O368        O  0.21835633  0.03822914  0.49867634    -1.11400
O369        O  0.18950619  0.05763204  0.53670667    -0.73800
O370        O  0.18229676  0.06176440  0.98142861    -0.77300
O371        O  0.24432095  0.01103015  0.96594018    -0.78000
C372        C  0.17949814  0.06610907  0.51344271     0.97300
O373        O  0.23510605  0.07599626  0.94429103    -0.76000
O374        O  0.22631583  0.04246569  0.57539850    -0.81200
C375        C  0.27828066  0.06033388  0.53760353     0.99900
C376        C  0.21271195  0.01562718  0.57812676     1.05800
O377        O  0.26176087  0.03338685  0.53616106    -0.76800
C378        C  0.24105211  0.09858238  0.95978410     1.04100
Fe379      Fe  0.27545127  0.43126594  0.70789912     1.65800
Fe380      Fe  0.24385849  0.40228810  0.78175221     1.73200
Fe381      Fe  0.25397657  0.46482854  0.76065761     1.54400
O382        O  0.29226025  0.99338737  0.73610041    -0.80500
O383        O  0.20423194  0.39498544  0.77446077    -0.78800
O384        O  0.31157015  0.46802393  0.71908910    -0.83000
O385        O  0.25927980  0.45358388  0.67990744    -0.77900
O386        O  0.27690196  0.46933902  0.80363047    -0.79700
O387        O  0.23673918  0.37170544  0.74263252    -0.82400
C388        C  0.24187038  0.46225208  0.68660714     0.98300
C389        C  0.31284408  0.49140730  0.72374354     1.05800
O390        O  0.25714087  0.43269255  0.74922406    -1.11400
O391        O  0.28415265  0.41135686  0.78816795    -0.73800
O392        O  0.29260131  0.40813116  0.73296778    -0.77300
O393        O  0.23246650  0.46155087  0.71670986    -0.78000
C394        C  0.29457478  0.40312524  0.76505801     0.97300
O395        O  0.24021017  0.39466018  0.69444262    -0.76000
O396        O  0.24814678  0.42792643  0.82552551    -0.81200
C397        C  0.19739860  0.41194642  0.78723208     0.99900
C398        C  0.26259808  0.45469469  0.82866487     1.05800
O399        O  0.21438241  0.43880042  0.78666518    -0.76800
C400        C  0.23415800  0.37206182  0.70971722     1.04100
Fe401      Fe  0.04387475  0.32509962  0.87272174     1.65800
Fe402      Fe  0.07245804  0.32464131  0.94782536     1.73200
Fe403      Fe  0.01041193  0.27049580  0.92597848     1.54400
O404        O  0.48172705  0.27959925  0.90055203    -0.80500
O405        O  0.08078785  0.29296842  0.94296281    -0.78800
O406        O  0.50725401  0.32428780  0.88297819    -0.83000
O407        O  0.02155818  0.28658497  0.84527473    -0.77900
O408        O  0.50454972  0.28815674  0.96870311    -0.79700
O409        O  0.10319501  0.34778704  0.90876315    -0.82400
C410        C  0.01331104  0.26078941  0.85226892     0.98300
C411        C  0.48380090  0.30214391  0.88814695     1.05800
O412        O  0.04229184  0.30623904  0.91484268    -1.11400
O413        O  0.06262943  0.35534633  0.95210089    -0.73800
O414        O  0.06657724  0.36574877  0.89647330    -0.77300
O415        O  0.01473613  0.25259082  0.88233493    -0.78000
C416        C  0.07066743  0.37342687  0.92833180     0.97300
O417        O  0.08037626  0.32619082  0.86104858    -0.76000
O418        O  0.04645211  0.30358892  0.99133397    -0.81200
C419        C  0.06385850  0.26883659  0.95518959     0.99900
C420        C  0.01953243  0.29024416  0.99428820     1.05800
O421        O  0.03680010  0.25807197  0.95325766    -0.76800
C422        C  0.10286481  0.34399963  0.87601902     1.04100
Fe423      Fe  0.43545214  0.14433862  0.62317515     1.65800
Fe424      Fe  0.40512118  0.14590665  0.69681820     1.73200
Fe425      Fe  0.46906448  0.19801257  0.67838201     1.54400
O426        O  0.99766900  0.18817900  0.65497679    -0.80500
O427        O  0.39879454  0.17880748  0.69052506    -0.78800
O428        O  0.47178478  0.14443466  0.63458912    -0.83000
O429        O  0.45853206  0.18326566  0.59667485    -0.77900
O430        O  0.47114518  0.17753238  0.72048760    -0.79700
O431        O  0.37522651  0.12338526  0.65680852    -0.82400
C432        C  0.46807723  0.20933935  0.60425531     0.98300
C433        C  0.99543996  0.16587113  0.64159309     1.05800
O434        O  0.43636713  0.16341521  0.66500447    -1.12000
O435        O  0.41310278  0.11409995  0.70259807    -0.73800
O436        O  0.41172537  0.10379648  0.64688377    -0.77300
O437        O  0.46834401  0.21791690  0.63477692    -0.78000
C438        C  0.40614091  0.09613320  0.67865275     0.97300
O439        O  0.39909025  0.14305859  0.60902906    -0.76000
O440        O  0.42991873  0.16618291  0.74161740    -0.81200
C441        C  0.41615189  0.20241912  0.70391045     0.99900
C442        C  0.45663665  0.17769803  0.74530410     1.05800
O443        O  0.44303010  0.21181149  0.70385714    -0.76800
C444        C  0.37609045  0.12648581  0.62396283     1.04100
C445        C  0.49867053  0.22135248  0.76795096     0.24700
C446        C  0.47186517  0.19719422  0.77427806    -0.23400
C447        C  0.45922349  0.19418820  0.80669851     0.19600
C448        C  0.47314065  0.21477030  0.83225859     0.24700
C449        C  0.49955724  0.23897604  0.82548387    -0.23300
C450        C  0.01213277  0.24211139  0.79319427     0.19600
F451        F  0.03753691  0.26526088  0.78609418    -0.13300
F452        F  0.01142389  0.22576349  0.73663859    -0.15600
F453        F  0.46025651  0.21167988  0.86323818    -0.15600
F454        F  0.43329614  0.17167334  0.81344187    -0.13300
C455        C  0.46592598  0.22752792  0.54616447     0.24700
C456        C  0.48046853  0.23095764  0.57708768    -0.23400
C457        C  0.50702685  0.25548717  0.58223455     0.19600
C458        C  0.01939697  0.27568341  0.55605696     0.24700
C459        C  0.00513452  0.27200593  0.52458063    -0.23300
C460        C  0.47784905  0.24790369  0.52034447     0.19600
F461        F  0.46304733  0.24307360  0.49046675    -0.13300
F462        F  0.44002790  0.20440713  0.54098482    -0.15600
F463        F  0.04553966  0.29843218  0.06120327    -0.15600
F464        F  0.02158996  0.25928596  0.61208764    -0.13300
C465        C  0.14916531  0.38909599  0.86470793     0.24700
C466        C  0.12746759  0.36236133  0.85357743    -0.23400
C467        C  0.12734401  0.35465899  0.81868409     0.19600
C468        C  0.14850994  0.37268144  0.79601786     0.24700
C469        C  0.17086278  0.39873682  0.80743104    -0.23300
C470        C  0.17060908  0.40714854  0.84178297     0.19600
F471        F  0.19200260  0.43204844  0.85379780    -0.13300
F472        F  0.14978119  0.39778378  0.89773132    -0.15600
F473        F  0.14798114  0.36394102  0.76299857    -0.15600
F474        F  0.10703705  0.32922064  0.80634018    -0.13300
C475        C  0.34264920  0.02276496  0.67643959     0.24700
C476        C  0.33849506  0.01676169  0.71193465    -0.23400
C477        C  0.35932121  0.03444591  0.73546843     0.19600
C478        C  0.38340105  0.05881943  0.72391114     0.24700
C479        C  0.38670392  0.06631822  0.68850918    -0.23300
C480        C  0.36655985  0.04734299  0.66473736     0.19600
F481        F  0.36872206  0.05354827  0.63054861    -0.13300
F482        F  0.32274819  0.00547980  0.65324595    -0.15600
F483        F  0.40272247  0.07592826  0.74776188    -0.15600
F484        F  0.35599284  0.02846027  0.76974738    -0.13300
C485        C  0.22516501  0.01312374  0.64043363     0.24700
C486        C  0.21747318  0.00099364  0.60739526    -0.23400
C487        C  0.21721235  0.47543863  0.60099304     0.19600
C488        C  0.22528884  0.46295892  0.62654376     0.24700
C489        C  0.23319729  0.47520510  0.65932843    -0.23300
C490        C  0.23261134  0.00017022  0.66628247     0.19600
F491        F  0.24026694  0.01263538  0.69787059    -0.13300
F492        F  0.22572449  0.03758520  0.64762447    -0.15600
F493        F  0.22509328  0.43867943  0.61929937    -0.15600
F494        F  0.21037911  0.46297499  0.56935423    -0.13300
C495        C  0.24899358  0.50714978  0.87556438     0.24700
C496        C  0.24281541  0.49616856  0.90897054    -0.23400
C497        C  0.24425245  0.97180380  0.91660735     0.19600
C498        C  0.25124198  0.45835204  0.89091008     0.24700
C499        C  0.25768001  0.46950377  0.85744540    -0.23300
C500        C  0.25662532  0.49419373  0.85014426     0.19600
F501        F  0.26159784  0.50516246  0.81778892    -0.13300
F502        F  0.24779679  0.53055551  0.86754292    -0.15600
F503        F  0.25143363  0.43437819  0.89862095    -0.15600
F504        F  0.23777273  0.96035803  0.94870806    -0.13300
C505        C  0.35033708  0.11671391  0.56724132     0.24700
C506        C  0.35088876  0.10880969  0.60178146    -0.23400
C507        C  0.32870358  0.08252870  0.61320943     0.19600
C508        C  0.30631588  0.06499719  0.59092499     0.24700
C509        C  0.30532894  0.07359631  0.55699840    -0.23300
C510        C  0.32783855  0.09942694  0.54532727     0.19600
F511        F  0.32745300  0.10853092  0.51284206    -0.13300
F512        F  0.37121012  0.14167699  0.55470988    -0.15600
F513        F  0.28471147  0.04046656  0.60328102    -0.15600
F514        F  0.32854606  0.07373542  0.64597503    -0.13300
C515        C  0.11864982  0.43492390  0.98525599     0.24700
C516        C  0.13768825  0.45365247  0.96107137    -0.23400
C517        C  0.13158878  0.44844690  0.92561976     0.19600
C518        C  0.10791996  0.42334325  0.91439940     0.24700
C519        C  0.08976168  0.40328705  0.93865717    -0.23300
C520        C  0.09459511  0.41024767  0.97426129     0.19600
F521        F  0.07689262  0.39243960  0.99875730    -0.13300
F522        F  0.12360431  0.44034990  0.51959258    -0.15600
F523        F  0.10394563  0.41799973  0.87995233    -0.15600
F524        F  0.14939009  0.46708663  0.90183513    -0.13300
C525        C  0.04858448  0.15665541  0.58903124     0.24700
C526        C  0.07218760  0.16847537  0.61115044    -0.23400
C527        C  0.06923725  0.17712794  0.64476651     0.19600
C528        C  0.04416409  0.17585223  0.65479805     0.24700
C529        C  0.02113467  0.16513911  0.63217316    -0.23300
C530        C  0.02316585  0.15469816  0.59962969     0.19600
F531        F  0.00104527  0.14418015  0.57720741    -0.13300
F532        F  0.05036625  0.14798739  0.55673402    -0.15600
F533        F  0.04255268  0.18550436  0.68658390    -0.15600
F534        F  0.09114101  0.18859722  0.66756375    -0.13300
C535        C  0.10462712  0.26186307  0.96645729     0.24700
C536        C  0.07721149  0.25571061  0.97560338    -0.23400
C537        C  0.06642631  0.24322843  0.00802947     0.19600
C538        C  0.08315669  0.23792289  0.53111082     0.24700
C539        C  0.11099719  0.24507579  0.52217131    -0.23300
C540        C  0.12130098  0.25694455  0.98937836     0.19600
F541        F  0.14798149  0.26437763  0.47946578    -0.13300
F542        F  0.11583624  0.27369471  0.93540192    -0.15600
F543        F  0.07199818  0.22552166  0.56190445    -0.15600
F544        F  0.04025438  0.23736110  0.01806434    -0.13300
C545        C  0.23269714  0.32586874  0.69805182     0.24700
C546        C  0.22676172  0.34692686  0.68764694    -0.23400
C547        C  0.21694804  0.34580946  0.65361665     0.19600
C548        C  0.21264620  0.32411527  0.63105479     0.24700
C549        C  0.21775250  0.30262476  0.64161471    -0.23300
C550        C  0.22828471  0.30396069  0.67524291     0.19600
F551        F  0.23270122  0.28320376  0.68674634    -0.13300
F552        F  0.24287506  0.32646627  0.73022870    -0.15600
F553        F  0.20222717  0.32346693  0.59897652    -0.15600
F554        F  0.21077034  0.36543326  0.64219792    -0.13300
C555        C  0.17069411  0.09261920  0.55994624     0.24700
C556        C  0.17041135  0.08630246  0.52432302    -0.23400
C557        C  0.16794124  0.10393170  0.49998851     0.19600
C558        C  0.16825717  0.12839651  0.51087461     0.24700
C559        C  0.17144839  0.13584054  0.54605051    -0.23300
C560        C  0.17176345  0.11744177  0.57055145     0.19600
F561        F  0.17325595  0.12359792  0.60476995    -0.13300
F562        F  0.17137590  0.07551798  0.58471132    -0.15600
F563        F  0.16660437  0.14550698  0.48691356    -0.15600
F564        F  0.16687909  0.09850169  0.96560742    -0.13300
C565        C  0.36007196  0.21723615  0.73570225     0.24700
C566        C  0.36863379  0.22610028  0.77010697    -0.23400
C567        C  0.39535498  0.23082959  0.78078934     0.19600
C568        C  0.41263587  0.22620780  0.75787977     0.24700
C569        C  0.40332191  0.21619581  0.72407632    -0.23300
C570        C  0.37715374  0.21248874  0.71315082     0.19600
F571        F  0.36746691  0.20305282  0.68069213    -0.13300
F572        F  0.33460266  0.21229960  0.72382926    -0.15600
F573        F  0.43774001  0.23002515  0.76942239    -0.15600
F574        F  0.40479142  0.23981168  0.81338670    -0.13300
C575        C  0.42841177  0.30297148  0.83121242     0.24700
C576        C  0.40992833  0.30392965  0.85580402    -0.23400
C577        C  0.41768658  0.30695822  0.89113855     0.19600
C578        C  0.44159615  0.30602882  0.90173641     0.24700
C579        C  0.45846874  0.30269408  0.87733861    -0.23300
C580        C  0.45251019  0.30238195  0.84198711     0.19600
F581        F  0.46941189  0.30023620  0.81793987    -0.13300
F582        F  0.42215786  0.30040434  0.79696356    -0.15600
F583        F  0.44810459  0.30801314  0.93587034    -0.15600
F584        F  0.40129223  0.30929104  0.91574716    -0.13300
C585        C  0.22929159  0.24625877  0.95833761     0.24700
C586        C  0.23355863  0.23939149  0.99162375    -0.23400
C587        C  0.25908415  0.23995727  0.99933282     0.19600
C588        C  0.27992791  0.24714488  0.97395855     0.24700
C589        C  0.27591760  0.25459308  0.94069936    -0.23300
C590        C  0.25026717  0.25404948  0.93324225     0.19600
F591        F  0.24478458  0.25991920  0.90106726    -0.13300
F592        F  0.20492606  0.24578869  0.95018848    -0.15600
F593        F  0.30385803  0.24668663  0.98185323    -0.15600
F594        F  0.26341582  0.23259143  0.53123030    -0.13300
C595        C  0.23155636  0.21860871  0.68300123     0.24700
C596        C  0.20474109  0.21544711  0.69015294    -0.23400
C597        C  0.19832843  0.21909924  0.72411352     0.19600
C598        C  0.21833492  0.22579729  0.75044216     0.24700
C599        C  0.24534769  0.22964207  0.74298289    -0.23300
C600        C  0.25166874  0.22587811  0.70907657     0.19600
F601        F  0.27737475  0.22926828  0.70111427    -0.13300
F602        F  0.23900050  0.21605298  0.65028066    -0.15600
F603        F  0.21169675  0.22971173  0.78300763    -0.15600
F604        F  0.17283243  0.21630172  0.73175454    -0.13300
C605        C  0.24983183  0.16763763  0.92489933     0.24700
C606        C  0.26118990  0.16884462  0.89182750    -0.23400
C607        C  0.26566124  0.14682860  0.88163535     0.19600
C608        C  0.26000547  0.12478945  0.90413596     0.24700
C609        C  0.24957618  0.12390769  0.93777457    -0.23300
C610        C  0.24425754  0.14550824  0.94773866     0.19600
F611        F  0.23350731  0.14519028  0.97943918    -0.13300
F612        F  0.24545432  0.18859024  0.93583453    -0.15600
F613        F  0.26537863  0.10450142  0.89295705    -0.15600
F614        F  0.27642085  0.14706580  0.84991986    -0.13300
C615        C  0.31223545  0.34450684  0.76247717     0.24700
C616        C  0.30767872  0.33569874  0.79717703    -0.23400
C617        C  0.30293310  0.35154117  0.82167228     0.19600
C618        C  0.30161719  0.37525055  0.81159088     0.24700
C619        C  0.30401236  0.38314055  0.77625387    -0.23300
C620        C  0.31013296  0.36781499  0.75199579     0.19600
F621        F  0.31261776  0.37435922  0.71790859    -0.13300
F622        F  0.31719042  0.32953466  0.73834980    -0.15600
F623        F  0.29656902  0.38956663  0.83657176    -0.15600
F624        F  0.29937243  0.34392592  0.85546602    -0.13300
Fe625      Fe  0.33176189  0.77368474  0.29072382     1.65800
Fe626      Fe  0.33105881  0.74308016  0.36506295     1.73200
Fe627      Fe  0.27705388  0.75119679  0.34447667     1.54400
O628        O  0.28583038  0.78922805  0.32041665    -0.80500
O629        O  0.29904381  0.70281075  0.35941087    -0.78800
O630        O  0.33031166  0.80923075  0.30148484    -0.83000
O631        O  0.29298980  0.75666213  0.26351768    -0.77900
O632        O  0.29576078  0.77436047  0.38722519    -0.79700
O633        O  0.35440519  0.73631050  0.32539205    -0.82400
C634        C  0.26701982  0.73879311  0.27039444     0.98300
C635        C  0.30802182  0.81005927  0.30744697     1.05800
O636        O  0.31275209  0.75526092  0.33252641    -1.11400
O637        O  0.36209975  0.78377857  0.37027700    -0.73800
O638        O  0.37235221  0.79186940  0.31461414    -0.77300
O639        O  0.25859373  0.72946475  0.30057212    -0.78000
C640        C  0.38014361  0.79435513  0.34635036     0.97300
O641        O  0.33402614  0.73914567  0.27743088    -0.76000
O642        O  0.30964097  0.74688850  0.40926914    -0.81200
C643        C  0.27483016  0.69548645  0.37171220     0.99900
C644        C  0.29634098  0.76032277  0.41226220     1.05800
O645        O  0.26440332  0.71190397  0.37043526    -0.76800
C646        C  0.35104978  0.73352176  0.29251113     1.04100
Fe647      Fe  0.14735403  0.69682823  0.04109237     1.65800
Fe648      Fe  0.14930226  0.72720102  0.11565243     1.73200
Fe649      Fe  0.20371648  0.72099121  0.09252346     1.54400
O650        O  0.19476975  0.68295342  0.06776494    -0.80500
O651        O  0.17997418  0.76778263  0.11023469    -0.78800
O652        O  0.14912164  0.66194259  0.05302951    -0.83000
O653        O  0.18578513  0.71324062  0.01257096    -0.77900
O654        O  0.18682438  0.69767585  0.13540850    -0.79700
O655        O  0.12492428  0.73351416  0.07674696    -0.82400
C656        C  0.21184792  0.73163509  0.01869322     0.98300
C657        C  0.17183868  0.66158569  0.05688258     1.05800
O658        O  0.16758705  0.71621701  0.08199288    -1.11400
O659        O  0.12040910  0.68593513  0.12049333    -0.73800
O660        O  0.10695316  0.67893729  0.06612932    -0.77300
O661        O  0.22049819  0.74255528  0.04828362    -0.78000
C662        C  0.10089671  0.67641217  0.09845337     0.97300
O663        O  0.14479139  0.73103446  0.02794586    -0.76000
O664        O  0.17177603  0.72392749  0.15875208    -0.81200
C665        C  0.20466338  0.77589458  0.12151594     0.99900
C666        C  0.18536313  0.71077597  0.16105955     1.05800
O667        O  0.21593377  0.76021025  0.11921231    -0.76800
C668        C  0.12817089  0.73680806  0.04386373     1.04100
Fe669      Fe  0.20002316  0.53924680  0.45702356     1.65800
Fe670      Fe  0.23043431  0.56822516  0.03180262     1.73200
Fe671      Fe  0.22236107  0.50665979  0.00973590     1.54400
O672        O  0.18423110  0.97768042  0.48471908    -0.80500
O673        O  0.27080182  0.57715174  0.02617260    -0.78800
O674        O  0.16424709  0.00242614  0.46775516    -0.83000
O675        O  0.21641376  0.51728384  0.42922682    -0.77900
O676        O  0.19908219  0.00088977  0.05267960    -0.79700
O677        O  0.23765004  0.59879617  0.49261981    -0.82400
C678        C  0.23437780  0.50943314  0.43597079     0.98300
C679        C  0.16337311  0.97926998  0.47241000     1.05800
O680        O  0.21834632  0.53821993  0.99868490    -1.11400
O681        O  0.18949748  0.55762437  0.03671415    -0.73800
O682        O  0.18227880  0.56175024  0.48143996    -0.77300
O683        O  0.24432701  0.51104207  0.46594787    -0.78000
C684        C  0.17948750  0.56609939  0.01345026     0.97300
O685        O  0.23508534  0.57599340  0.44429765    -0.76000
O686        O  0.22630441  0.54245728  0.07540707    -0.81200
C687        C  0.27827059  0.56032263  0.03761665     0.99900
C688        C  0.21269887  0.51561907  0.07813785     1.05800
O689        O  0.26174891  0.53337566  0.03617411    -0.76800
C690        C  0.24103225  0.59857868  0.45979508     1.04100
Fe691      Fe  0.27545008  0.93125728  0.20789216     1.65800
Fe692      Fe  0.24385587  0.90228318  0.28174557     1.73200
Fe693      Fe  0.25397018  0.96482019  0.26064072     1.54400
O694        O  0.29225996  0.49339802  0.23611387    -0.80500
O695        O  0.20422972  0.89497893  0.27444655    -0.78800
O696        O  0.31156803  0.96801561  0.21907869    -0.83000
O697        O  0.25928003  0.95357372  0.17989327    -0.77900
O698        O  0.27689481  0.96933695  0.30361595    -0.79700
O699        O  0.23674179  0.87169893  0.24262988    -0.82400
C700        C  0.24186914  0.96224086  0.18658930     0.98300
C701        C  0.31284083  0.99139874  0.22372958     1.05800
O702        O  0.25713931  0.93268609  0.24921509    -1.11400
O703        O  0.28414944  0.91135258  0.28816807    -0.73800
O704        O  0.29260122  0.90812617  0.23296863    -0.77300
O705        O  0.23246033  0.96153587  0.21668996    -0.78000
C706        C  0.29457538  0.90312334  0.26506015     0.97300
O707        O  0.24020866  0.89465168  0.19444071    -0.76000
O708        O  0.24814147  0.92792473  0.32551480    -0.81200
C709        C  0.19739411  0.91193701  0.28722117     0.99900
C710        C  0.26259188  0.95469344  0.32865132     1.05800
O711        O  0.21437535  0.93879171  0.28665072    -0.76800
C712        C  0.23416303  0.87205505  0.20971400     1.04100
Fe713      Fe  0.04388352  0.82510624  0.37274531     1.65800
Fe714      Fe  0.07246812  0.82464329  0.44784554     1.73200
Fe715      Fe  0.01041629  0.77050387  0.42600424     1.54400
O716        O  0.48173649  0.77960828  0.40058085    -0.80500
O717        O  0.08079447  0.79296871  0.44297888    -0.78800
O718        O  0.50726768  0.82429491  0.38300198    -0.83000
O719        O  0.02156370  0.78659242  0.34529745    -0.77900
O720        O  0.50456721  0.78816593  0.46872883    -0.79700
O721        O  0.10320530  0.84779085  0.40878305    -0.82400
C722        C  0.01330811  0.76079480  0.35229094     0.98300
C723        C  0.48381309  0.80215307  0.38817230     1.05800
O724        O  0.04229986  0.80624312  0.41486425    -1.11400
O725        O  0.06263600  0.85534441  0.45212462    -0.73800
O726        O  0.06658845  0.86575394  0.39650006    -0.77300
O727        O  0.01472733  0.75259273  0.38235737    -0.78000
C728        C  0.07067720  0.87342813  0.42835988     0.97300
O729        O  0.08038354  0.82619450  0.36107010    -0.76000
O730        O  0.04646722  0.80359247  0.49135663    -0.81200
C731        C  0.06386296  0.76883675  0.45520428     0.99900
C732        C  0.01954833  0.79025319  0.49431407     1.05800
O733        O  0.03680453  0.75807528  0.45327554    -0.76800
C734        C  0.10287377  0.84400172  0.37603936     1.04100
Fe735      Fe  0.43545265  0.64434966  0.12317747     1.65800
Fe736      Fe  0.40512171  0.64591494  0.19682081     1.73200
Fe737      Fe  0.46906431  0.69802280  0.17838859     1.54400
O738        O  0.99767097  0.68818477  0.15498877    -0.80500
O739        O  0.39879281  0.67881329  0.19052421    -0.78800
O740        O  0.47178720  0.64444832  0.13458807    -0.83000
O741        O  0.45853080  0.68327768  0.09667926    -0.77900
O742        O  0.47114513  0.67754449  0.22049627    -0.79700
O743        O  0.37522671  0.62339008  0.15681123    -0.82400
C744        C  0.46807773  0.70935122  0.10426202     0.98300
C745        C  0.99544072  0.66587825  0.14159850     1.05800
O746        O  0.43636794  0.66342513  0.16500823    -1.12000
O747        O  0.41310827  0.61411194  0.20260089    -0.73800
O748        O  0.41172795  0.60380731  0.14688658    -0.77300
O749        O  0.46834545  0.71792790  0.13478424    -0.78000
C750        C  0.40614360  0.59614462  0.17865587     0.97300
O751        O  0.39908764  0.64306534  0.10903171    -0.76000
O752        O  0.42991714  0.66619329  0.24162182    -0.81200
C753        C  0.41614777  0.70242457  0.20391212     0.99900
C754        C  0.45663496  0.67770950  0.24531141     1.05800
O755        O  0.44302650  0.71181918  0.20386076    -0.76800
C756        C  0.37608889  0.62648892  0.12396499     1.04100
C757        C  0.49867112  0.72135882  0.26796754     0.24700
C758        C  0.47186172  0.69720405  0.27428848    -0.23400
C759        C  0.45921595  0.69419983  0.30670612     0.19600
C760        C  0.47313402  0.71477881  0.33226979     0.24700
C761        C  0.49955564  0.73898011  0.32550158    -0.23300
C762        C  0.01213286  0.74211750  0.29321642     0.19600
F763        F  0.03754215  0.76526258  0.28612299    -0.13300
F764        F  0.01142826  0.72577156  0.23666072    -0.15600
F765        F  0.46024630  0.71168988  0.36324647    -0.15600
F766        F  0.43328404  0.67168979  0.31344345    -0.13300
C767        C  0.46592824  0.72754200  0.04617299     0.24700
C768        C  0.48047004  0.73097067  0.07709639    -0.23400
C769        C  0.50702871  0.75549952  0.08224460     0.19600
C770        C  0.01940546  0.77569254  0.05606699     0.24700
C771        C  0.00514442  0.77201670  0.02458993    -0.23300
C772        C  0.47785329  0.74791711  0.02035289     0.19600
F773        F  0.46305248  0.74308770  0.99047451    -0.13300
F774        F  0.44002930  0.70442255  0.04099309    -0.15600
F775        F  0.04554430  0.79845779  0.56123934    -0.15600
F776        F  0.02159487  0.75929228  0.11209694    -0.13300
C777        C  0.14916315  0.88910570  0.36470521     0.24700
C778        C  0.12747667  0.86235799  0.35359489    -0.23400
C779        C  0.12735963  0.85463562  0.31871263     0.19600
C780        C  0.14851797  0.87265323  0.29603540     0.24700
C781        C  0.17086080  0.89872337  0.30742806    -0.23300
C782        C  0.17060222  0.90715280  0.34177038     0.19600
F783        F  0.19198550  0.93206696  0.35376691    -0.13300
F784        F  0.14977075  0.89781219  0.39771716    -0.15600
F785        F  0.14799158  0.86389461  0.26302609    -0.15600
F786        F  0.10706550  0.82918215  0.30639096    -0.13300
C787        C  0.34264015  0.52278349  0.17644827     0.24700
C788        C  0.33849233  0.51677695  0.21194291    -0.23400
C789        C  0.35932219  0.53445942  0.23547408     0.19600
C790        C  0.38340221  0.55883167  0.22391447     0.24700
C791        C  0.38670191  0.56633106  0.18851284    -0.23300
C792        C  0.36655113  0.54736008  0.16474378     0.19600
F793        F  0.36870765  0.55356842  0.13055628    -0.13300
F794        F  0.32273303  0.50550278  0.15325775    -0.15600
F795        F  0.40272743  0.57593873  0.24776295    -0.15600
F796        F  0.35599727  0.52847356  0.26975302    -0.13300
C797        C  0.22515961  0.51312571  0.14044433     0.24700
C798        C  0.21745758  0.50098724  0.10741065    -0.23400
C799        C  0.21722289  0.97544303  0.10097437     0.19600
C800        C  0.22529673  0.96295876  0.12652259     0.24700
C801        C  0.23320210  0.97519950  0.15931041    -0.23300
C802        C  0.23260997  0.50017652  0.16629452     0.19600
F803        F  0.24027722  0.51265034  0.19787699    -0.13300
F804        F  0.22572773  0.53759239  0.14762805    -0.15600
F805        F  0.22510070  0.93867981  0.11927274    -0.15600
F806        F  0.21039140  0.96298434  0.06933270    -0.13300
C807        C  0.24898732  0.00714931  0.37554784     0.24700
C808        C  0.24282384  0.99617722  0.40895899    -0.23400
C809        C  0.24425870  0.47181218  0.41661907     0.19600
C810        C  0.25125130  0.95836089  0.39089986     0.24700
C811        C  0.25767523  0.96950405  0.35743074    -0.23300
C812        C  0.25661237  0.99418907  0.35012594     0.19600
F813        F  0.26157070  0.00514856  0.31776620    -0.13300
F814        F  0.24778237  0.03055008  0.36752285    -0.15600
F815        F  0.25145218  0.93439231  0.39861434    -0.15600
F816        F  0.23777908  0.46036721  0.44872016    -0.13300
C817        C  0.35033969  0.61669418  0.06723425     0.24700
C818        C  0.35088638  0.60880653  0.10178451    -0.23400
C819        C  0.32869230  0.58253600  0.11322708     0.19600
C820        C  0.30630156  0.56499996  0.09094820     0.24700
C821        C  0.30531962  0.57358400  0.05701164    -0.23300
C822        C  0.32783739  0.59940311  0.04532604     0.19600
F823        F  0.32745691  0.60849225  0.01283067    -0.13300
F824        F  0.37122128  0.64164507  0.05468612    -0.15600
F825        F  0.28468964  0.54048079  0.10331795    -0.15600
F826        F  0.32852789  0.57375750  0.14600261    -0.13300
C827        C  0.11869562  0.93491478  0.48527682     0.24700
C828        C  0.13769855  0.95366153  0.46107939    -0.23400
C829        C  0.13156520  0.94846635  0.42563322     0.19600
C830        C  0.10789715  0.92335715  0.41442547     0.24700
C831        C  0.08977265  0.90328621  0.43869165    -0.23300
C832        C  0.09463996  0.91023452  0.47429703     0.19600
F833        F  0.07697237  0.89241175  0.49880682    -0.13300
F834        F  0.12367612  0.94032001  0.01960495    -0.15600
F835        F  0.10389011  0.91802501  0.37997871    -0.15600
F836        F  0.14933523  0.96712071  0.40183885    -0.13300
C837        C  0.04859389  0.65667931  0.08903142     0.24700
C838        C  0.07218890  0.66847779  0.11116393    -0.23400
C839        C  0.06922690  0.67710435  0.14479088     0.19600
C840        C  0.04415401  0.67583162  0.15481867     0.24700
C841        C  0.02113490  0.66514406  0.13217987    -0.23300
C842        C  0.02317488  0.65472347  0.09962606     0.19600
F843        F  0.00106348  0.64422810  0.07719140    -0.13300
F844        F  0.05038465  0.64803299  0.05672471    -0.15600
F845        F  0.04253273  0.68546132  0.18661522    -0.15600
F846        F  0.09111944  0.68854485  0.16760489    -0.13300
C847        C  0.10462733  0.76185519  0.46646237     0.24700
C848        C  0.07721421  0.75570726  0.47561411    -0.23400
C849        C  0.06643274  0.74322919  0.50804301     0.19600
C850        C  0.08318070  0.73794233  0.03112637     0.24700
C851        C  0.11101854  0.74508929  0.02218183    -0.23300
C852        C  0.12130336  0.75693813  0.48938147     0.19600
F853        F  0.14799703  0.76438025  0.97946870    -0.13300
F854        F  0.11583248  0.77368260  0.43540396    -0.15600
F855        F  0.07202562  0.72554708  0.06192375    -0.15600
F856        F  0.04026331  0.73736621  0.51808328    -0.13300
C857        C  0.23270912  0.82586389  0.19805641     0.24700
C858        C  0.22677965  0.84692402  0.18764226    -0.23400
C859        C  0.21698511  0.84581306  0.15360254     0.19600
C860        C  0.21269259  0.82412139  0.13104252     0.24700
C861        C  0.21778651  0.80262571  0.14161389    -0.23300
C862        C  0.22830430  0.80395730  0.17524954     0.19600
F863        F  0.23271290  0.78319743  0.18676123    -0.13300
F864        F  0.24287243  0.82645696  0.23024108    -0.15600
F865        F  0.20229166  0.82347898  0.09895456    -0.15600
F866        F  0.21081631  0.86544009  0.14217203    -0.13300
C867        C  0.17067450  0.59260146  0.05995498     0.24700
C868        C  0.17039771  0.58629013  0.02433098    -0.23400
C869        C  0.16793307  0.60392368  0.99999815     0.19600
C870        C  0.16825044  0.62838848  0.01088731     0.24700
C871        C  0.17143617  0.63582708  0.04606479    -0.23300
C872        C  0.17174477  0.61742365  0.07056352     0.19600
F873        F  0.17323344  0.62357565  0.10478295    -0.13300
F874        F  0.17135084  0.57549575  0.08471775    -0.15600
F875        F  0.16660686  0.64550527  0.98692787    -0.15600
F876        F  0.16685662  0.59848329  0.46562243    -0.13300
C877        C  0.36005640  0.71721845  0.23572207     0.24700
C878        C  0.36862812  0.72609541  0.27012058    -0.23400
C879        C  0.39535568  0.73083697  0.28079328     0.19600
C880        C  0.41263577  0.72621849  0.25787878     0.24700
C881        C  0.40331395  0.71619624  0.22408052    -0.23300
C882        C  0.37713720  0.71247414  0.21316552     0.19600
F883        F  0.36744138  0.70302662  0.18071275    -0.13300
F884        F  0.33457862  0.71226651  0.22386119    -0.15600
F885        F  0.43774778  0.73005005  0.26941188    -0.15600
F886        F  0.40479944  0.73982869  0.31338586    -0.13300
C887        C  0.42842256  0.80297241  0.33123058     0.24700
C888        C  0.40993963  0.80393443  0.35581970    -0.23400
C889        C  0.41770001  0.80697111  0.39115388     0.19600
C890        C  0.44161074  0.80604496  0.40175490     0.24700
C891        C  0.45848215  0.80270485  0.37736053    -0.23300
C892        C  0.45252173  0.80238519  0.34200829     0.19600
F893        F  0.46942180  0.80023350  0.31796388    -0.13300
F894        F  0.42216699  0.80039845  0.29698189    -0.15600
F895        F  0.44812085  0.80803671  0.43588886    -0.15600
F896        F  0.40130646  0.80930873  0.41575940    -0.13300
C897        C  0.22934274  0.74635922  0.45838446     0.24700
C898        C  0.23356237  0.73938620  0.49163296    -0.23400
C899        C  0.25904905  0.73986726  0.49931630     0.19600
C900        C  0.27989993  0.74706835  0.47394888     0.24700
C901        C  0.27593651  0.75461419  0.44072329    -0.23300
C902        C  0.25032651  0.75416390  0.43329696     0.19600
F903        F  0.24488770  0.76013991  0.40115729    -0.13300
F904        F  0.20501707  0.74598057  0.45026712    -0.15600
F905        F  0.30378875  0.74652247  0.48181584    -0.15600
F906        F  0.26332285  0.73236967  0.03117683    -0.13300
C907        C  0.23156189  0.71860836  0.18302416     0.24700
C908        C  0.20474833  0.71545195  0.19017272    -0.23400
C909        C  0.19833840  0.71911499  0.22413024     0.19600
C910        C  0.21834529  0.72581740  0.25045938     0.24700
C911        C  0.24535575  0.72965534  0.24300336    -0.23300
C912        C  0.25167477  0.72588196  0.20909995     0.19600
F913        F  0.27737924  0.72926684  0.20114103    -0.13300
F914        F  0.23900406  0.71604403  0.15030589    -0.15600
F915        F  0.21171018  0.72974288  0.28302152    -0.15600
F916        F  0.17284485  0.71632476  0.23176755    -0.13300
C917        C  0.24978999  0.66762112  0.42489081     0.24700
C918        C  0.26118643  0.66884618  0.39183879    -0.23400
C919        C  0.26568513  0.64684307  0.38166542     0.19600
C920        C  0.26002395  0.62480365  0.40416803     0.24700
C921        C  0.24956010  0.62390650  0.43778891    -0.23300
C922        C  0.24420998  0.64549057  0.44773225     0.19600
F923        F  0.23342155  0.64515369  0.47941301    -0.13300
F924        F  0.24537650  0.68855572  0.43580494    -0.15600
F925        F  0.26542625  0.60453032  0.39300997    -0.15600
F926        F  0.27647648  0.64709303  0.34996718    -0.13300
C927        C  0.31224075  0.84450861  0.26249166     0.24700
C928        C  0.30769373  0.83570995  0.29719502    -0.23400
C929        C  0.30295459  0.85155874  0.32168761     0.19600
C930        C  0.30163487  0.87526494  0.31160010     0.24700
C931        C  0.30401959  0.88314477  0.27626000    -0.23300
C932        C  0.31013462  0.86781336  0.25200464     0.19600
F933        F  0.31260872  0.87434735  0.21791470    -0.13300
F934        F  0.31718850  0.82952958  0.23836683    -0.15600
F935        F  0.29659279  0.88958758  0.33657808    -0.15600
F936        F  0.29940266  0.84395213  0.35548430    -0.13300
Fe937      Fe  0.33176087  0.77369068  0.79072817     1.65800
Fe938      Fe  0.33105985  0.74308220  0.86506297     1.73200
Fe939      Fe  0.27704973  0.75119077  0.84447798     1.54400
O940        O  0.28582051  0.78922151  0.82042168    -0.80500
O941        O  0.29904945  0.70281095  0.85940706    -0.78800
O942        O  0.33030395  0.80923174  0.80149639    -0.83000
O943        O  0.29298890  0.75666577  0.76352043    -0.77900
O944        O  0.29575458  0.77435304  0.88722827    -0.79700
O945        O  0.35441112  0.73632038  0.82539066    -0.82400
C946        C  0.26701896  0.73879446  0.77039446     0.98300
C947        C  0.30801118  0.81005540  0.80745490     1.05800
O948        O  0.31275023  0.75526040  0.83252741    -1.11400
O949        O  0.36209536  0.78378245  0.87028146    -0.73800
O950        O  0.37235055  0.79187818  0.81462029    -0.77300
O951        O  0.25859194  0.72946157  0.80057063    -0.78000
C952        C  0.38014058  0.79436162  0.84635664     0.97300
O953        O  0.33403346  0.73915723  0.77742892    -0.76000
O954        O  0.30963805  0.74688335  0.90926992    -0.81200
C955        C  0.27483484  0.69548282  0.87170828     0.99900
C956        C  0.29633613  0.76031559  0.91226472     1.05800
O957        O  0.26440442  0.71189739  0.87043240    -0.76800
C958        C  0.35105861  0.73353512  0.79250907     1.04100
Fe959      Fe  0.14735582  0.69683003  0.54108510     1.65800
Fe960      Fe  0.14929777  0.72719778  0.61564673     1.73200
Fe961      Fe  0.20371881  0.72100070  0.59251602     1.54400
O962        O  0.19477777  0.68296426  0.56775810    -0.80500
O963        O  0.17996348  0.76778150  0.61023044    -0.78800
O964        O  0.14912942  0.66194778  0.55302132    -0.83000
O965        O  0.18578755  0.71324704  0.51256364    -0.77900
O966        O  0.18683118  0.69768450  0.63540166    -0.79700
O967        O  0.12491686  0.73350694  0.57674143    -0.82400
C968        C  0.21184931  0.73164488  0.51868591     0.98300
C969        C  0.17184815  0.66159434  0.55687612     1.05800
O970        O  0.16758685  0.71621973  0.58198628    -1.11400
O971        O  0.12041133  0.68592967  0.62048454    -0.73800
O972        O  0.10695400  0.67893391  0.56612159    -0.77300
O973        O  0.22049708  0.74256660  0.54827610    -0.78000
C974        C  0.10089809  0.67640745  0.59844578     0.97300
O975        O  0.14478819  0.73103355  0.52794074    -0.76000
O976        O  0.17177464  0.72392878  0.65874655    -0.81200
C977        C  0.20465409  0.77589790  0.62150974     0.99900
C978        C  0.18536641  0.71078197  0.66105353     1.05800
O979        O  0.21592918  0.76021788  0.61920460    -0.76800
C980        C  0.12816463  0.73680301  0.54385858     1.04100
Fe981      Fe  0.20002427  0.53924612  0.95701945     1.65800
Fe982      Fe  0.23043335  0.56822891  0.53180539     1.73200
Fe983      Fe  0.22237239  0.50666943  0.50973465     1.54400
O984        O  0.18422533  0.97767852  0.98472376    -0.80500
O985        O  0.27080348  0.57716436  0.52617452    -0.78800
O986        O  0.16424533  0.00242688  0.96775531    -0.83000
O987        O  0.21641125  0.51727932  0.92922486    -0.77900
O988        O  0.19908316  0.00088841  0.55267564    -0.79700
O989        O  0.23765644  0.59879354  0.99261704    -0.82400
C990        C  0.23437022  0.50942275  0.93597113     0.98300
C991        C  0.16336910  0.97926983  0.97241179     1.05800
O992        O  0.21835044  0.53822541  0.49868632    -1.11400
O993        O  0.18949387  0.55761858  0.53671739    -0.73800
O994        O  0.18228279  0.56175279  0.98143464    -0.77300
O995        O  0.24431474  0.51102630  0.96594996    -0.78000
C996        C  0.17948564  0.56609713  0.51345612     0.97300
O997        O  0.23509098  0.57599011  0.94429561    -0.76000
O998        O  0.22630867  0.54246149  0.57540857    -0.81200
C999        C  0.27827650  0.56033806  0.53761681     0.99900
C1000       C  0.21270668  0.51562311  0.57813739     1.05800
O1001       O  0.26175880  0.53339058  0.53617266    -0.76800
C1002       C  0.24103959  0.59857590  0.95979275     1.04100
Fe1003     Fe  0.27544365  0.93125477  0.70789084     1.65800
Fe1004     Fe  0.24384857  0.90228211  0.78174369     1.73200
Fe1005     Fe  0.25397222  0.96482296  0.76064326     1.54400
O1006       O  0.29226128  0.49339655  0.73611399    -0.80500
O1007       O  0.20422499  0.89498363  0.77444261    -0.78800
O1008       O  0.31156474  0.96801039  0.71907591    -0.83000
O1009       O  0.25927645  0.95357424  0.67989364    -0.77900
O1010       O  0.27689511  0.96933434  0.80361866    -0.79700
O1011       O  0.23673170  0.87169787  0.74262788    -0.82400
C1012       C  0.24186828  0.96224444  0.68659131     0.98300
C1013       C  0.31284188  0.99139510  0.72373077     1.05800
O1014       O  0.25713588  0.93268630  0.74921492    -1.11400
O1015       O  0.28414033  0.91134717  0.78816661    -0.73800
O1016       O  0.29259125  0.90812026  0.73296673    -0.77300
O1017       O  0.23246351  0.96154355  0.71669328    -0.78000
C1018       C  0.29456528  0.90311731  0.76505851     0.97300
O1019       O  0.24019897  0.89465179  0.69443987    -0.76000
O1020       O  0.24813620  0.92792254  0.82551415    -0.81200
C1021       C  0.19739219  0.91194327  0.78721905     0.99900
C1022       C  0.26259006  0.95469078  0.82865295     1.05800
O1023       O  0.21437616  0.93879741  0.78665146    -0.76800
C1024       C  0.23415168  0.87205456  0.70971254     1.04100
Fe1025     Fe  0.04388642  0.82510665  0.87274035     1.65800
Fe1026     Fe  0.07246881  0.82464761  0.94784362     1.73200
Fe1027     Fe  0.01042231  0.77050406  0.92599800     1.54400
O1028       O  0.48173564  0.77961100  0.90057366    -0.80500
O1029       O  0.08080161  0.79297693  0.94298272    -0.78800
O1030       O  0.50726580  0.82429727  0.88299251    -0.83000
O1031       O  0.02156868  0.78659224  0.84529334    -0.77900
O1032       O  0.50456286  0.78816817  0.96872141    -0.79700
O1033       O  0.10320684  0.84779615  0.90878200    -0.82400
C1034       C  0.01331695  0.76079561  0.85228751     0.98300
C1035       C  0.48381156  0.80215556  0.88816494     1.05800
O1036       O  0.04230342  0.80624463  0.91485988    -1.11400
O1037       O  0.06263014  0.85534440  0.95211741    -0.73800
O1038       O  0.06658920  0.86575546  0.89649362    -0.77300
O1039       O  0.01474045  0.75259567  0.88235350    -0.78000
C1040       C  0.07067458  0.87342902  0.92835377     0.97300
O1041       O  0.08038722  0.82619595  0.86106957    -0.76000
O1042       O  0.04646543  0.80359508  0.99135252    -0.81200
C1043       C  0.06387119  0.76884404  0.95520665     0.99900
C1044       C  0.01954627  0.79025357  0.99430685     1.05800
O1045       O  0.03681248  0.75807988  0.95327443    -0.76800
C1046       C  0.10287620  0.84400558  0.87603841     1.04100
Fe1047     Fe  0.43545452  0.64435276  0.62318410     1.65800
Fe1048     Fe  0.40512273  0.64592023  0.69682660     1.73200
Fe1049     Fe  0.46907144  0.69802104  0.67840087     1.54400
O1050       O  0.99767754  0.68818456  0.65500086    -0.80500
O1051       O  0.39880187  0.67882402  0.69053095    -0.78800
O1052       O  0.47178612  0.64444464  0.63459321    -0.83000
O1053       O  0.45853688  0.68328088  0.59668898    -0.77900
O1054       O  0.47114259  0.67753558  0.72050666    -0.79700
O1055       O  0.37522873  0.62340091  0.65681563    -0.82400
C1056       C  0.46808908  0.70935495  0.60427377     0.98300
C1057       C  0.99544713  0.66587929  0.64160639     1.05800
O1058       O  0.43637161  0.66342746  0.66501632    -1.12000
O1059       O  0.41309985  0.61411070  0.70260658    -0.73800
O1060       O  0.41172576  0.60381041  0.64689076    -0.77300
O1061       O  0.46836152  0.71793186  0.63479708    -0.78000
C1062       C  0.40613917  0.59614568  0.67865922     0.97300
O1063       O  0.39909263  0.64307504  0.60903754    -0.76000
O1064       O  0.42991653  0.66619353  0.74162942    -0.81200
C1065       C  0.41615938  0.70243415  0.70391957     0.99900
C1066       C  0.45663371  0.67770531  0.74532014     1.05800
O1067       O  0.44303731  0.71182381  0.70387077    -0.76800
C1068       C  0.37609256  0.62650131  0.62396970     1.04100
C1069       C  0.49867135  0.72135609  0.76796925     0.24700
C1070       C  0.47186177  0.69720256  0.77429376    -0.23400
C1071       C  0.45921665  0.69420244  0.80671077     0.19600
C1072       C  0.47313565  0.71478397  0.83227098     0.24700
C1073       C  0.49955767  0.73898363  0.82549964    -0.23300
C1074       C  0.01213440  0.74211713  0.79321194     0.19600
F1075       F  0.03754049  0.76526425  0.78611231    -0.13300
F1076       F  0.01142211  0.72576957  0.73665520    -0.15600
F1077       F  0.46024865  0.71169921  0.86324727    -0.15600
F1078       F  0.43328425  0.67169400  0.81345066    -0.13300
C1079       C  0.46593553  0.72754556  0.54618679     0.24700
C1080       C  0.48048018  0.73097383  0.57710759    -0.23400
C1081       C  0.50704069  0.75550121  0.58225219     0.19600
C1082       C  0.01940532  0.77570195  0.55607996     0.24700
C1083       C  0.00514837  0.77201632  0.52459756    -0.23300
C1084       C  0.47785918  0.74791938  0.52036525     0.19600
F1085       F  0.46305559  0.74309013  0.49048934    -0.13300
F1086       F  0.44003504  0.70442729  0.54101031    -0.15600
F1087       F  0.04554989  0.79844071  0.06122392    -0.15600
F1088       F  0.02159217  0.75931420  0.61211903    -0.13300
C1089       C  0.14916481  0.88911032  0.86470475     0.24700
C1090       C  0.12747787  0.86236342  0.85359344    -0.23400
C1091       C  0.12735859  0.85464321  0.81870945     0.19600
C1092       C  0.14851532  0.87266235  0.79603188     0.24700
C1093       C  0.17085922  0.89873110  0.80742583    -0.23300
C1094       C  0.17060269  0.90715863  0.84176963     0.19600
F1095       F  0.19198688  0.93207178  0.85376689    -0.13300
F1096       F  0.14977449  0.89781479  0.89771828    -0.15600
F1097       F  0.14798689  0.86390594  0.76302087    -0.15600
F1098       F  0.10706404  0.82919059  0.80638629    -0.13300
C1099       C  0.34263427  0.52278730  0.67645045     0.24700
C1100       C  0.33849374  0.51677575  0.71194433    -0.23400
C1101       C  0.35932969  0.53445317  0.73547259     0.19600
C1102       C  0.38340799  0.55882656  0.72391172     0.24700
C1103       C  0.38670036  0.56633088  0.68851218    -0.23300
C1104       C  0.36654437  0.54736400  0.66474486     0.19600
F1105       F  0.36869479  0.55357707  0.63055915    -0.13300
F1106       F  0.32272129  0.50551134  0.65326258    -0.15600
F1107       F  0.40273882  0.57593014  0.74775731    -0.15600
F1108       F  0.35601185  0.52846196  0.76975026    -0.13300
C1109       C  0.22516512  0.51312762  0.64044435     0.24700
C1110       C  0.21746639  0.50099134  0.60740930    -0.23400
C1111       C  0.21722470  0.97544435  0.60097311     0.19600
C1112       C  0.22529858  0.96296133  0.62652278     0.24700
C1113       C  0.23319870  0.97520062  0.65931198    -0.23300
C1114       C  0.23261446  0.50017749  0.66629438     0.19600
F1115       F  0.24027818  0.51264890  0.69787848    -0.13300
F1116       F  0.22573053  0.53759273  0.64762975    -0.15600
F1117       F  0.22510799  0.93868509  0.61927281    -0.15600
F1118       F  0.21039890  0.96298753  0.56933017    -0.13300
C1119       C  0.24899267  0.00715000  0.87555286     0.24700
C1120       C  0.24281889  0.99617157  0.90896054    -0.23400
C1121       C  0.24424886  0.47180071  0.91661693     0.19600
C1122       C  0.25124087  0.95835231  0.89089932     0.24700
C1123       C  0.25767470  0.96950144  0.85743338    -0.23300
C1124       C  0.25662016  0.99419133  0.85013163     0.19600
F1125       F  0.26158876  0.00515736  0.81777500    -0.13300
F1126       F  0.24779554  0.03055547  0.86753084    -0.15600
F1127       F  0.25143338  0.93437898  0.89861074    -0.15600
F1128       F  0.23776431  0.46035201  0.94871593    -0.13300
C1129       C  0.35034255  0.61671419  0.56724073     0.24700
C1130       C  0.35088971  0.60882255  0.60178889    -0.23400
C1131       C  0.32869615  0.58255093  0.61322860     0.19600
C1132       C  0.30630673  0.56501578  0.59094812     0.24700
C1133       C  0.30532480  0.57360246  0.55701307    -0.23300
C1134       C  0.32784057  0.59942446  0.54533118     0.19600
F1135       F  0.32745896  0.60851720  0.51283819    -0.13300
F1136       F  0.37122334  0.64166722  0.55469656    -0.15600
F1137       F  0.28469591  0.54049464  0.60331499    -0.15600
F1138       F  0.32853116  0.57377007  0.64600304    -0.13300
C1139       C  0.11869248  0.93491271  0.98527554     0.24700
C1140       C  0.13769419  0.95366221  0.96107944    -0.23400
C1141       C  0.13156036  0.94846953  0.92563292     0.19600
C1142       C  0.10789339  0.92336003  0.91442337     0.24700
C1143       C  0.08976996  0.90328669  0.93868798    -0.23300
C1144       C  0.09463755  0.91023252  0.97429414     0.19600
F1145       F  0.07697122  0.89240745  0.99880307    -0.13300
F1146       F  0.12367884  0.94032486  0.51960582    -0.15600
F1147       F  0.10388621  0.91803031  0.87997614    -0.15600
F1148       F  0.14932908  0.96712655  0.90183986    -0.13300
C1149       C  0.04859666  0.65668501  0.58902510     0.24700
C1150       C  0.07219120  0.66847509  0.61115847    -0.23400
C1151       C  0.06923046  0.67709647  0.64478917     0.19600
C1152       C  0.04415943  0.67582619  0.65482093     0.24700
C1153       C  0.02114067  0.66514577  0.63218222    -0.23300
C1154       C  0.02317949  0.65473137  0.59962361     0.19600
F1155       F  0.00106865  0.64424408  0.57718851    -0.13300
F1156       F  0.05038631  0.64804525  0.55671412    -0.15600
F1157       F  0.04253945  0.68545066  0.68662141    -0.15600
F1158       F  0.09112263  0.68852924  0.66760403    -0.13300
C1159       C  0.10463801  0.76186620  0.96646865     0.24700
C1160       C  0.07722370  0.75571619  0.97561796    -0.23400
C1161       C  0.06644072  0.74323598  0.00804555     0.19600
C1162       C  0.08317340  0.73793597  0.53112309     0.24700
C1163       C  0.11101065  0.74508200  0.52217657    -0.23300
C1164       C  0.12131302  0.75694767  0.98938814     0.19600
F1165       F  0.14798691  0.76437044  0.47946010    -0.13300
F1166       F  0.11584492  0.77369599  0.93541178    -0.15600
F1167       F  0.07201992  0.72554290  0.56192191    -0.15600
F1168       F  0.04027013  0.73737073  0.01808357    -0.13300
C1169       C  0.23270311  0.82586759  0.69804886     0.24700
C1170       C  0.22676581  0.84692355  0.68764062    -0.23400
C1171       C  0.21696224  0.84580961  0.65360542     0.19600
C1172       C  0.21266968  0.82411923  0.63104319     0.24700
C1173       C  0.21777342  0.80262845  0.64160818    -0.23300
C1174       C  0.22829908  0.80396281  0.67523974     0.19600
F1175       F  0.23271652  0.78320717  0.68674569    -0.13300
F1176       F  0.24287392  0.82646342  0.73022965    -0.15600
F1177       F  0.20225983  0.82347339  0.59895981    -0.15600
F1178       F  0.21078507  0.86543257  0.64218201    -0.13300
C1179       C  0.17069738  0.59261711  0.55996128     0.24700
C1180       C  0.17040440  0.58629424  0.52433833    -0.23400
C1181       C  0.16792997  0.60392062  0.50000361     0.19600
C1182       C  0.16824986  0.62838764  0.51088805     0.24700
C1183       C  0.17144844  0.63583620  0.54606274    -0.23300
C1184       C  0.17177026  0.61744165  0.57056453     0.19600
F1185       F  0.17327274  0.62360382  0.60478212    -0.13300
F1186       F  0.17138616  0.57552037  0.58472736    -0.15600
F1187       F  0.16659550  0.64549663  0.48692612    -0.15600
F1188       F  0.16687350  0.59849639  0.96561553    -0.13300
C1189       C  0.36007434  0.71724210  0.73571707     0.24700
C1190       C  0.36864084  0.72611332  0.77011841    -0.23400
C1191       C  0.39536610  0.73085100  0.78079584     0.19600
C1192       C  0.41264684  0.72623032  0.75788465     0.24700
C1193       C  0.40332849  0.71621071  0.72408467    -0.23300
C1194       C  0.37715586  0.71249583  0.71316384     0.19600
F1195       F  0.36746420  0.70305273  0.68070861    -0.13300
F1196       F  0.33460056  0.71229701  0.72384990    -0.15600
F1197       F  0.43775564  0.73005679  0.76942270    -0.15600
F1198       F  0.40480681  0.73984073  0.81338987    -0.13300
C1199       C  0.42842327  0.80299015  0.83123381     0.24700
C1200       C  0.40993625  0.80393976  0.85582713    -0.23400
C1201       C  0.41769313  0.80696326  0.89116188     0.19600
C1202       C  0.44160402  0.80603537  0.90175774     0.24700
C1203       C  0.45847997  0.80270810  0.87735784    -0.23300
C1204       C  0.45252339  0.80240264  0.84200654     0.19600
F1205       F  0.46942803  0.80026409  0.81795728    -0.13300
F1206       F  0.42217143  0.80042925  0.79698458    -0.15600
F1207       F  0.44811056  0.80801404  0.93589179    -0.15600
F1208       F  0.40129625  0.80928961  0.91577242    -0.13300
C1209       C  0.22934994  0.74637445  0.95840107     0.24700
C1210       C  0.23355915  0.73937473  0.99163921    -0.23400
C1211       C  0.25903530  0.73983214  0.99931286     0.19600
C1212       C  0.27988660  0.74703613  0.97394523     0.24700
C1213       C  0.27593402  0.75460803  0.94072923    -0.23300
C1214       C  0.25033414  0.75418189  0.93331372     0.19600
F1215       F  0.24490461  0.76018482  0.90118403    -0.13300
F1216       F  0.20503433  0.74601967  0.95029445    -0.15600
F1217       F  0.30376426  0.74646584  0.98180203    -0.15600
F1218       F  0.26334792  0.73243040  0.53119017    -0.13300
C1219       C  0.23156435  0.71861386  0.68302201     0.24700
C1220       C  0.20475099  0.71545871  0.69016835    -0.23400
C1221       C  0.19834056  0.71912299  0.72412544     0.19600
C1222       C  0.21834632  0.72582394  0.75045601     0.24700
C1223       C  0.24535603  0.72965931  0.74300210    -0.23300
C1224       C  0.25167601  0.72588614  0.70909908     0.19600
F1225       F  0.27738018  0.72926959  0.70114204    -0.13300
F1226       F  0.23900772  0.71604919  0.65030448    -0.15600
F1227       F  0.21171089  0.72975039  0.78301761    -0.15600
F1228       F  0.17284774  0.71633511  0.73176095    -0.13300
C1229       C  0.24979227  0.66761441  0.92488394     0.24700
C1230       C  0.26119437  0.66884237  0.89183493    -0.23400
C1231       C  0.26570014  0.64684282  0.88166544     0.19600
C1232       C  0.26003915  0.62480378  0.90416896     0.24700
C1233       C  0.24956938  0.62390408  0.93778681    -0.23300
C1234       C  0.24421351  0.64548501  0.94772650     0.19600
F1235       F  0.23341975  0.64514557  0.97940444    -0.13300
F1236       F  0.24537104  0.68854494  0.93579408    -0.15600
F1237       F  0.26544688  0.60453313  0.89301499    -0.15600
F1238       F  0.27649704  0.64709543  0.84997009    -0.13300
C1239       C  0.31221708  0.84449370  0.76249308     0.24700
C1240       C  0.30767893  0.83570289  0.79719942    -0.23400
C1241       C  0.30294896  0.85155845  0.82169118     0.19600
C1242       C  0.30163089  0.87526489  0.81160057     0.24700
C1243       C  0.30400817  0.88313795  0.77625837    -0.23300
C1244       C  0.31011286  0.86779878  0.75200335     0.19600
F1245       F  0.31257792  0.87432510  0.71791136    -0.13300
F1246       F  0.31715497  0.82950715  0.73836904    -0.15600
F1247       F  0.29659842  0.88959502  0.83657778    -0.15600
F1248       F  0.29940472  0.84395856  0.85549013    -0.13300
Fe1249     Fe  0.83175891  0.27368604  0.29070194     1.65800
Fe1250     Fe  0.83105862  0.24308516  0.36504301     1.73200
Fe1251     Fe  0.77704844  0.25119231  0.34445178     1.54400
O1252       O  0.78582200  0.28922298  0.32039043    -0.80500
O1253       O  0.79904828  0.20281321  0.35939067    -0.78800
O1254       O  0.83030428  0.30922961  0.30146044    -0.83000
O1255       O  0.79298741  0.25666050  0.26349366    -0.77900
O1256       O  0.79574707  0.27435520  0.38720374    -0.79700
O1257       O  0.85440930  0.23631937  0.32537311    -0.82400
C1258       C  0.76701816  0.23878888  0.27036980     0.98300
C1259       C  0.80801295  0.31005559  0.30742132     1.05800
O1260       O  0.81274951  0.25526213  0.33250501    -1.11400
O1261       O  0.86209360  0.28378579  0.37025635    -0.73800
O1262       O  0.87234863  0.29187454  0.31459421    -0.77300
O1263       O  0.75859343  0.22945837  0.30054689    -0.78000
C1264       C  0.88013867  0.29436140  0.34633092     0.97300
O1265       O  0.83402733  0.23914892  0.27741187    -0.76000
O1266       O  0.80963691  0.24688990  0.40924840    -0.81200
C1267       C  0.77483393  0.19548727  0.37169066     0.99900
C1268       C  0.79633122  0.26031867  0.41224023     1.05800
O1269       O  0.76440340  0.21190148  0.37041072    -0.76800
C1270       C  0.85105409  0.23352932  0.29249222     1.04100
Fe1271     Fe  0.64734487  0.19682342  0.04107959     1.65800
Fe1272     Fe  0.64928299  0.22718772  0.11564313     1.73200
Fe1273     Fe  0.70370834  0.22100130  0.09250781     1.54400
O1274       O  0.69477172  0.18296669  0.06774629    -0.80500
O1275       O  0.67994335  0.26777528  0.11023884    -0.78800
O1276       O  0.64912057  0.16194343  0.05302300    -0.83000
O1277       O  0.68577778  0.21324071  0.01256007    -0.77900
O1278       O  0.68681969  0.19767926  0.13538865    -0.79700
O1279       O  0.62490342  0.23349841  0.07673558    -0.82400
C1280       C  0.71183898  0.23164275  0.01867955     0.98300
C1281       C  0.67184152  0.16159341  0.05687142     1.05800
O1282       O  0.66757621  0.21621827  0.08197881    -1.11400
O1283       O  0.62040522  0.18591601  0.12047155    -0.73800
O1284       O  0.60694251  0.17892679  0.06611206    -0.77300
O1285       O  0.72048429  0.24257026  0.04826812    -0.78000
C1286       C  0.60089007  0.17640012  0.09843667     0.97300
O1287       O  0.64477330  0.23102422  0.02793236    -0.76000
O1288       O  0.67176022  0.22391785  0.15874180    -0.81200
C1289       C  0.70463515  0.27589341  0.12151563     0.99900
C1290       C  0.68535449  0.21077332  0.16104341     1.05800
O1291       O  0.71591353  0.26021635  0.11920290    -0.76800
C1292       C  0.62815218  0.23679616  0.04385228     1.04100
Fe1293     Fe  0.70003969  0.03925873  0.45700363     1.65800
Fe1294     Fe  0.73043991  0.06823019  0.03179602     1.73200
Fe1295     Fe  0.72236502  0.00666474  0.00972833     1.54400
O1296       O  0.68422610  0.47767423  0.48472661    -0.80500
O1297       O  0.77080547  0.07715517  0.02616159    -0.78800
O1298       O  0.66423925  0.50241798  0.46776770    -0.83000
O1299       O  0.71642579  0.01729072  0.42921152    -0.77900
O1300       O  0.69906430  0.50087935  0.05269029    -0.79700
O1301       O  0.73766947  0.09880556  0.49260153    -0.82400
C1302       C  0.73438228  0.00943150  0.43595956     0.98300
C1303       C  0.66336672  0.47926211  0.47241825     1.05800
O1304       O  0.71835077  0.03822485  0.99867835    -1.11400
O1305       O  0.68950363  0.05763065  0.03670932    -0.73800
O1306       O  0.68229820  0.06176655  0.48141693    -0.77300
O1307       O  0.74432461  0.01103352  0.46593927    -0.78000
C1308       C  0.67949480  0.06610703  0.01344541     0.97300
O1309       O  0.73510964  0.07600084  0.44428482    -0.76000
O1310       O  0.72631138  0.04246262  0.07540053    -0.81200
C1311       C  0.77827503  0.06032651  0.03760435     0.99900
C1312       C  0.71270468  0.01562427  0.07813008     1.05800
O1313       O  0.76175360  0.03337963  0.03616325    -0.76800
C1314       C  0.74105438  0.09858684  0.45977790     1.04100
Fe1315     Fe  0.77544117  0.43126278  0.20789440     1.65800
Fe1316     Fe  0.74385790  0.40228828  0.28175399     1.73200
Fe1317     Fe  0.75397480  0.46482884  0.26066025     1.54400
O1318       O  0.79226067  0.99338871  0.23610006    -0.80500
O1319       O  0.70423002  0.39498454  0.27446999    -0.78800
O1320       O  0.81156189  0.46802176  0.21907386    -0.83000
O1321       O  0.75926570  0.45357820  0.17990588    -0.77900
O1322       O  0.77690301  0.46933833  0.30363006    -0.79700
O1323       O  0.73673615  0.37170394  0.24263511    -0.82400
C1324       C  0.74185985  0.46225001  0.18660989     0.98300
C1325       C  0.81283873  0.49140566  0.22373663     1.05800
O1326       O  0.75713681  0.43269196  0.24922395    -1.11400
O1327       O  0.78415312  0.41135794  0.28816281    -0.73800
O1328       O  0.79259614  0.40813136  0.23296026    -0.77300
O1329       O  0.73246232  0.46155377  0.21671504    -0.78000
C1330       C  0.79457466  0.40312783  0.26505007     0.97300
O1331       O  0.74019794  0.39465592  0.19444664    -0.76000
O1332       O  0.74814871  0.42792727  0.32552790    -0.81200
C1333       C  0.69739750  0.41194681  0.28723978     0.99900
C1334       C  0.76260004  0.45469562  0.32866566     1.05800
O1335       O  0.71438153  0.43880082  0.28667050    -0.76800
C1336       C  0.73415142  0.37205895  0.20972004     1.04100
Fe1337     Fe  0.54387095  0.32510147  0.37273290     1.65800
Fe1338     Fe  0.57245691  0.32464114  0.44783369     1.73200
Fe1339     Fe  0.51040826  0.27049673  0.42598899     1.54400
O1340       O  0.98172577  0.27960431  0.40056280    -0.80500
O1341       O  0.58078440  0.29296686  0.44296722    -0.78800
O1342       O  0.00725802  0.32429102  0.38298412    -0.83000
O1343       O  0.52155355  0.28658693  0.34528498    -0.77900
O1344       O  0.00455373  0.28815986  0.46871269    -0.79700
O1345       O  0.60319287  0.34778788  0.40877060    -0.82400
C1346       C  0.51330472  0.26079062  0.35227772     0.98300
C1347       C  0.98380313  0.30214953  0.38815455     1.05800
O1348       O  0.54228890  0.30623986  0.41485256    -1.11400
O1349       O  0.56263030  0.35534747  0.45211330    -0.73800
O1350       O  0.56657453  0.36575032  0.39648592    -0.77300
O1351       O  0.51472838  0.25259072  0.38234353    -0.78000
C1352       C  0.57066732  0.37342824  0.42834469     0.97300
O1353       O  0.58037245  0.32619345  0.36105627    -0.76000
O1354       O  0.54645302  0.30358828  0.49134333    -0.81200
C1355       C  0.56385504  0.26883477  0.45519367     0.99900
C1356       C  0.51953362  0.29024373  0.49429913     1.05800
O1357       O  0.53679665  0.25807105  0.45326405    -0.76800
C1358       C  0.60286149  0.34400190  0.37602593     1.04100
Fe1359     Fe  0.93545036  0.14434111  0.12316761     1.65800
Fe1360     Fe  0.90512142  0.14591027  0.19681110     1.73200
Fe1361     Fe  0.96906198  0.19801842  0.17837078     1.54400
O1362       O  0.49766870  0.18818418  0.15497395    -0.80500
O1363       O  0.89879167  0.17880922  0.19051854    -0.78800
O1364       O  0.97178392  0.14443973  0.13458264    -0.83000
O1365       O  0.95852875  0.18326779  0.09666503    -0.77900
O1366       O  0.97114825  0.17754303  0.22047829    -0.79700
O1367       O  0.87522558  0.12338601  0.15680273    -0.82400
C1368       C  0.96807191  0.20934143  0.10424440     0.98300
C1369       C  0.49544009  0.16587627  0.14159054     1.05800
O1370       O  0.93636558  0.16341929  0.16499586    -1.12000
O1371       O  0.91310764  0.11410696  0.20259071    -0.73800
O1372       O  0.91172470  0.10379899  0.14687809    -0.77300
O1373       O  0.96833681  0.21791928  0.13476518    -0.78000
C1374       C  0.90614177  0.09613785  0.17864801     0.97300
O1375       O  0.89908716  0.14305822  0.10902164    -0.76000
O1376       O  0.92992021  0.16618839  0.24160873    -0.81200
C1377       C  0.91614888  0.20242163  0.20390237     0.99900
C1378       C  0.95663832  0.17770513  0.24529555     1.05800
O1379       O  0.94302729  0.21181551  0.20384709    -0.76800
C1380       C  0.87608834  0.12648453  0.12395648     1.04100
C1381       C  0.99866973  0.22135794  0.26795024     0.24700
C1382       C  0.97186507  0.19719775  0.27427326    -0.23400
C1383       C  0.95922187  0.19418659  0.30669380     0.19600
C1384       C  0.97313651  0.21476613  0.33225746     0.24700
C1385       C  0.99955210  0.23897443  0.32548646    -0.23300
C1386       C  0.51212262  0.24212388  0.29319452     0.19600
F1387       F  0.53752043  0.26528071  0.28609186    -0.13300
F1388       F  0.51140887  0.22578854  0.23663009    -0.15600
F1389       F  0.96025057  0.21167062  0.36323685    -0.15600
F1390       F  0.93329550  0.17166909  0.31343385    -0.13300
C1391       C  0.96591794  0.22753587  0.04615869     0.24700
C1392       C  0.98046407  0.23095974  0.07707715    -0.23400
C1393       C  0.00702629  0.25548492  0.08222149     0.19600
C1394       C  0.51939314  0.27568745  0.05605105     0.24700
C1395       C  0.50512958  0.27201009  0.02457564    -0.23300
C1396       C  0.97784182  0.24791233  0.02033942     0.19600
F1397       F  0.96303576  0.24308815  0.99046644    -0.13300
F1398       F  0.94001544  0.20442016  0.04098305    -0.15600
F1399       F  0.54553563  0.29843888  0.56121858    -0.15600
F1400       F  0.52158829  0.25929006  0.11208096    -0.13300
C1401       C  0.64916275  0.38909834  0.36471483     0.24700
C1402       C  0.62746395  0.36236438  0.35358378    -0.23400
C1403       C  0.62733961  0.35466298  0.31868975     0.19600
C1404       C  0.64850687  0.37268472  0.29602427     0.24700
C1405       C  0.67086125  0.39873872  0.30743836    -0.23300
C1406       C  0.67060760  0.40715035  0.34179042     0.19600
F1407       F  0.69200205  0.43204945  0.35380579    -0.13300
F1408       F  0.64977866  0.39778605  0.39773830    -0.15600
F1409       F  0.64797761  0.36394484  0.26300460    -0.15600
F1410       F  0.60703073  0.32922617  0.30634450    -0.13300
C1411       C  0.84265932  0.02276059  0.17643151     0.24700
C1412       C  0.83849326  0.01676390  0.21192754    -0.23400
C1413       C  0.85930741  0.03445755  0.23546716     0.19600
C1414       C  0.88338815  0.05883168  0.22391368     0.24700
C1415       C  0.88670265  0.06632384  0.18850874    -0.23300
C1416       C  0.86656943  0.04734111  0.16473284     0.19600
F1417       F  0.86874160  0.05354011  0.13054157    -0.13300
F1418       F  0.82276945  0.00546701  0.15323251    -0.15600
F1419       F  0.90269853  0.07594687  0.24777030    -0.15600
F1420       F  0.85596715  0.02847941  0.26974786    -0.13300
C1421       C  0.72516568  0.01312670  0.14043507     0.24700
C1422       C  0.71746215  0.00099001  0.10740094    -0.23400
C1423       C  0.71718238  0.47542650  0.10100357     0.19600
C1424       C  0.72526057  0.46294743  0.12655341     0.24700
C1425       C  0.73318379  0.47520148  0.15933251    -0.23300
C1426       C  0.73261206  0.00017342  0.16628410     0.19600
F1427       F  0.74028012  0.01264528  0.19786748    -0.13300
F1428       F  0.72573801  0.03759512  0.14762106    -0.15600
F1429       F  0.72505270  0.43866115  0.11931347    -0.15600
F1430       F  0.71033466  0.46295477  0.06936993    -0.13300
C1431       C  0.74900008  0.50715534  0.37556241     0.24700
C1432       C  0.74282010  0.49617442  0.40896855    -0.23400
C1433       C  0.74426260  0.97180984  0.41660773     0.19600
C1434       C  0.75124310  0.45835506  0.39091020     0.24700
C1435       C  0.75768284  0.46950631  0.35744537    -0.23300
C1436       C  0.75663098  0.49419777  0.35014322     0.19600
F1437       F  0.76160565  0.50516664  0.31778790    -0.13300
F1438       F  0.74780600  0.53056241  0.36754007    -0.15600
F1439       F  0.75143203  0.43438001  0.39862228    -0.15600
F1440       F  0.73778454  0.96036541  0.44870920    -0.13300
C1441       C  0.85033347  0.11670684  0.06723523     0.24700
C1442       C  0.85088652  0.10880510  0.10177636    -0.23400
C1443       C  0.82870273  0.08252406  0.11320626     0.19600
C1444       C  0.80631344  0.06499132  0.09092408     0.24700
C1445       C  0.80532466  0.07358866  0.05699692    -0.23300
C1446       C  0.82783417  0.09941815  0.04532305     0.19600
F1447       F  0.82744757  0.10851991  0.01283681    -0.13300
F1448       F  0.87120579  0.14166906  0.05470104    -0.15600
F1449       F  0.78470947  0.04046158  0.10328260    -0.15600
F1450       F  0.82854810  0.07373178  0.14597174    -0.13300
C1451       C  0.61866012  0.43492461  0.48526461     0.24700
C1452       C  0.63769404  0.45365409  0.46107708    -0.23400
C1453       C  0.63158810  0.44844907  0.42562657     0.19600
C1454       C  0.60791750  0.42334536  0.41440958     0.24700
C1455       C  0.58976372  0.40328843  0.43866952    -0.23300
C1456       C  0.59460346  0.41024846  0.47427346     0.19600
F1457       F  0.57690489  0.39244039  0.49877217    -0.13300
F1458       F  0.62358403  0.44034833  0.01959064    -0.15600
F1459       F  0.60393653  0.41800299  0.37996275    -0.15600
F1460       F  0.64938458  0.46708970  0.40183935    -0.13300
C1461       C  0.54858168  0.15664548  0.08904138     0.24700
C1462       C  0.57218901  0.16848073  0.11115342    -0.23400
C1463       C  0.56924368  0.17714950  0.14476176     0.19600
C1464       C  0.54416994  0.17587281  0.15479194     0.24700
C1465       C  0.52113544  0.16514403  0.13217357    -0.23300
C1466       C  0.52316265  0.15468805  0.09963856     0.19600
F1467       F  0.50103745  0.14415424  0.07722238    -0.13300
F1468       F  0.55035906  0.14796088  0.05675229    -0.15600
F1469       F  0.54256312  0.18553963  0.18656998    -0.15600
F1470       F  0.59115259  0.18863560  0.16755105    -0.13300
C1471       C  0.60462595  0.26186467  0.46646048     0.24700
C1472       C  0.57720833  0.25570740  0.47560447    -0.23400
C1473       C  0.56642047  0.24321778  0.50802665     0.19600
C1474       C  0.58316314  0.23793229  0.03111186     0.24700
C1475       C  0.61100238  0.24508150  0.02217180    -0.23300
C1476       C  0.62129995  0.25694620  0.48938125     0.19600
F1477       F  0.64798739  0.26438196  0.97946719    -0.13300
F1478       F  0.61583693  0.27370117  0.43540770    -0.15600
F1479       F  0.57200359  0.22553083  0.06190511    -0.15600
F1480       F  0.54024555  0.23734320  0.51805855    -0.13300
C1481       C  0.73268869  0.32586394  0.19805785     0.24700
C1482       C  0.72675849  0.34692472  0.18764907    -0.23400
C1483       C  0.71695255  0.34581028  0.15361476     0.19600
C1484       C  0.71265283  0.32411629  0.13105372     0.24700
C1485       C  0.71775352  0.30262319  0.14161762    -0.23300
C1486       C  0.72827841  0.30395617  0.17524955     0.19600
F1487       F  0.73268922  0.28319660  0.18675669    -0.13300
F1488       F  0.74285872  0.32645785  0.23023863    -0.15600
F1489       F  0.70224072  0.32347058  0.09897181    -0.15600
F1490       F  0.71078031  0.36543657  0.14219094    -0.13300
C1491       C  0.67068834  0.09261437  0.05995009     0.24700
C1492       C  0.67040616  0.08629868  0.02432667    -0.23400
C1493       C  0.66793543  0.10392797  0.99999287     0.19600
C1494       C  0.66825170  0.12839270  0.01087992     0.24700
C1495       C  0.67144371  0.13583645  0.04605594    -0.23300
C1496       C  0.67175822  0.11743698  0.07055630     0.19600
F1497       F  0.67325089  0.12359253  0.10477499    -0.13300
F1498       F  0.67136925  0.07551213  0.08471445    -0.15600
F1499       F  0.66659844  0.14550340  0.98691960    -0.15600
F1500       F  0.66693184  0.09853989  0.46558819    -0.13300
C1501       C  0.86007040  0.21723897  0.23569809     0.24700
C1502       C  0.86863464  0.22610511  0.27010168    -0.23400
C1503       C  0.89535634  0.23083474  0.28078208     0.19600
C1504       C  0.91263560  0.22621162  0.25787147     0.24700
C1505       C  0.90331946  0.21619812  0.22406910    -0.23300
C1506       C  0.87715058  0.21249024  0.21314560     0.19600
F1507       F  0.86746176  0.20305258  0.18068802    -0.13300
F1508       F  0.83460035  0.21230189  0.22382725    -0.15600
F1509       F  0.93774033  0.23002915  0.26941223    -0.15600
F1510       F  0.90479488  0.23981863  0.31337831    -0.13300
C1511       C  0.92841718  0.30297735  0.33121321     0.24700
C1512       C  0.90993353  0.30393792  0.35580248    -0.23400
C1513       C  0.91769134  0.30696951  0.39113728     0.19600
C1514       C  0.94160023  0.30604000  0.40173829     0.24700
C1515       C  0.95847286  0.30270253  0.37734317    -0.23300
C1516       C  0.95251503  0.30238784  0.34199093     0.19600
F1517       F  0.96941650  0.30023900  0.31794609    -0.13300
F1518       F  0.92216380  0.30040755  0.29696409    -0.15600
F1519       F  0.94810760  0.30802635  0.43587269    -0.15600
F1520       F  0.90129688  0.30930509  0.41574335    -0.13300
C1521       C  0.72930137  0.24628276  0.45833781     0.24700
C1522       C  0.73355781  0.23939312  0.49161633    -0.23400
C1523       C  0.75907510  0.23994113  0.49932066     0.19600
C1524       C  0.77992112  0.24713209  0.47394853     0.24700
C1525       C  0.77592147  0.25460126  0.44069614    -0.23300
C1526       C  0.75027940  0.25407687  0.43324473     0.19600
F1527       F  0.74480670  0.25996938  0.40107699    -0.13300
F1528       F  0.70494441  0.24583206  0.45019470    -0.15600
F1529       F  0.80384248  0.24665553  0.48183829    -0.15600
F1530       F  0.76341190  0.23258129  0.03123354    -0.13300
C1531       C  0.73156036  0.21861956  0.18299844     0.24700
C1532       C  0.70474275  0.21545098  0.19015334    -0.23400
C1533       C  0.69832987  0.21910004  0.22411493     0.19600
C1534       C  0.71833816  0.22580087  0.25044192     0.24700
C1535       C  0.74535274  0.22965116  0.24298003    -0.23300
C1536       C  0.75167442  0.22589144  0.20907222     0.19600
F1537       F  0.77738243  0.22928786  0.20110701    -0.13300
F1538       F  0.73900465  0.21606804  0.15027632    -0.15600
F1539       F  0.71169954  0.22971222  0.28300852    -0.15600
F1540       F  0.67283180  0.21629658  0.23175853    -0.13300
C1541       C  0.74983246  0.16764149  0.42489196     0.24700
C1542       C  0.76119393  0.16885062  0.39182193    -0.23400
C1543       C  0.76566794  0.14683582  0.38163105     0.19600
C1544       C  0.76001102  0.12479601  0.40413130     0.24700
C1545       C  0.74957890  0.12391254  0.43776846    -0.23300
C1546       C  0.74425832  0.14551218  0.44773147     0.19600
F1547       F  0.73350687  0.14519359  0.47943120    -0.13300
F1548       F  0.74545107  0.18859204  0.43582549    -0.15600
F1549       F  0.76538626  0.10450907  0.39295352    -0.15600
F1550       F  0.77643101  0.14707485  0.34991738    -0.13300
C1551       C  0.81222613  0.34450369  0.26246685     0.24700
C1552       C  0.80768403  0.33570610  0.29717072    -0.23400
C1553       C  0.80295501  0.35155934  0.32166710     0.19600
C1554       C  0.80163944  0.37526846  0.31158319     0.24700
C1555       C  0.80401774  0.38314690  0.27624336    -0.23300
C1556       C  0.81012385  0.36781154  0.25198357     0.19600
F1557       F  0.81259358  0.37434534  0.21789378    -0.13300
F1558       F  0.81716665  0.32952175  0.23833866    -0.15600
F1559       F  0.79660821  0.38959607  0.33656511    -0.15600
F1560       F  0.79940983  0.34395471  0.35546428    -0.13300
Fe1561     Fe  0.83175513  0.27367964  0.79071105     1.65800
Fe1562     Fe  0.83105380  0.24307675  0.86505128     1.73200
Fe1563     Fe  0.77704289  0.25118342  0.84445854     1.54400
O1564       O  0.78581600  0.28921447  0.82039896    -0.80500
O1565       O  0.79904311  0.20280503  0.85939709    -0.78800
O1566       O  0.83029834  0.30922246  0.80146921    -0.83000
O1567       O  0.79298485  0.25665324  0.76350120    -0.77900
O1568       O  0.79573988  0.27434506  0.88721187    -0.79700
O1569       O  0.85440590  0.23631203  0.82538233    -0.82400
C1570       C  0.76701540  0.23878085  0.77037550     0.98300
C1571       C  0.80800673  0.31004788  0.80743070     1.05800
O1572       O  0.81274509  0.25525464  0.83251333    -1.11400
O1573       O  0.86208947  0.28377700  0.87026693    -0.73800
O1574       O  0.87234366  0.29186872  0.81460474    -0.77300
O1575       O  0.75858934  0.22945029  0.80055215    -0.78000
C1576       C  0.88013397  0.29435412  0.84634130     0.97300
O1577       O  0.83402605  0.23914373  0.77742034    -0.76000
O1578       O  0.80963132  0.24688055  0.90925593    -0.81200
C1579       C  0.77482867  0.19547889  0.87169709     0.99900
C1580       C  0.79632470  0.26030836  0.91224782     1.05800
O1581       O  0.76439776  0.21189263  0.87041650    -0.76800
C1582       C  0.85105198  0.23352331  0.79250107     1.04100
Fe1583     Fe  0.64735130  0.19682903  0.54107678     1.65800
Fe1584     Fe  0.64929043  0.22719462  0.61563971     1.73200
Fe1585     Fe  0.70371814  0.22101286  0.59249869     1.54400
O1586       O  0.69478478  0.18298007  0.56773391    -0.80500
O1587       O  0.67994984  0.26778236  0.61023181    -0.78800
O1588       O  0.64913133  0.16195114  0.55302069    -0.83000
O1589       O  0.68578357  0.21324889  0.51255384    -0.77900
O1590       O  0.68683411  0.19769000  0.63537987    -0.79700
O1591       O  0.62490767  0.23350250  0.57673408    -0.82400
C1592       C  0.71184430  0.23165377  0.51867130     0.98300
C1593       C  0.67185464  0.16160463  0.55686286     1.05800
O1594       O  0.66758310  0.21622501  0.58197460    -1.11400
O1595       O  0.62041101  0.18592379  0.62047258    -0.73800
O1596       O  0.60694964  0.17893026  0.56611224    -0.77300
O1597       O  0.72048958  0.24258345  0.54825886    -0.78000
C1598       C  0.60089625  0.17640392  0.59843689     0.97300
O1599       O  0.64477605  0.23102767  0.52792987    -0.76000
O1600       O  0.67177041  0.22392481  0.65873595    -0.81200
C1601       C  0.70464162  0.27590190  0.62150927     0.99900
C1602       C  0.68536568  0.21078089  0.66103611     1.05800
O1603       O  0.71592140  0.26022622  0.61919625    -0.76800
C1604       C  0.62815401  0.23679805  0.54385047     1.04100
Fe1605     Fe  0.70003096  0.03925329  0.95701278     1.65800
Fe1606     Fe  0.73044622  0.06823818  0.53178813     1.73200
Fe1607     Fe  0.72237174  0.00667139  0.50972490     1.54400
O1608       O  0.68421001  0.47766810  0.98473034    -0.80500
O1609       O  0.77081150  0.07716209  0.52615446    -0.78800
O1610       O  0.66422687  0.50241575  0.96777352    -0.83000
O1611       O  0.71641508  0.01728484  0.92921715    -0.77900
O1612       O  0.69907979  0.50088716  0.55268517    -0.79700
O1613       O  0.73766231  0.09879859  0.99261090    -0.82400
C1614       C  0.73437243  0.00942612  0.93596246     0.98300
C1615       C  0.66335221  0.47925872  0.97242191     1.05800
O1616       O  0.71835702  0.03823109  0.49867206    -1.11400
O1617       O  0.68951038  0.05764206  0.53669943    -0.73800
O1618       O  0.68229093  0.06176130  0.98142964    -0.77300
O1619       O  0.74431684  0.01102847  0.96594107    -0.78000
C1620       C  0.67950199  0.06611590  0.51343154     0.97300
O1621       O  0.73510065  0.07599429  0.94429299    -0.76000
O1622       O  0.72631766  0.04247163  0.57539501    -0.81200
C1623       C  0.77828100  0.06033387  0.53759903     0.99900
C1624       C  0.71271288  0.01563327  0.57812485     1.05800
O1625       O  0.76175978  0.03338710  0.53615916    -0.76800
C1626       C  0.74104685  0.09858020  0.95978712     1.04100
Fe1627     Fe  0.77545474  0.43127015  0.70790219     1.65800
Fe1628     Fe  0.74385721  0.40229157  0.78175251     1.73200
Fe1629     Fe  0.75397485  0.46483164  0.76065450     1.54400
O1630       O  0.79225838  0.99338742  0.73609693    -0.80500
O1631       O  0.70423110  0.39498974  0.77445825    -0.78800
O1632       O  0.81157259  0.46802729  0.71909777    -0.83000
O1633       O  0.75928596  0.45358945  0.67990703    -0.77900
O1634       O  0.77689838  0.46934514  0.80363016    -0.79700
O1635       O  0.73673877  0.37170905  0.74263249    -0.82400
C1636       C  0.74187382  0.46225501  0.68660348     0.98300
C1637       C  0.81284504  0.49141054  0.72374633     1.05800
O1638       O  0.75714150  0.43269618  0.74922478    -1.11400
O1639       O  0.78415053  0.41135807  0.78817212    -0.73800
O1640       O  0.79260214  0.40813359  0.73297284    -0.77300
O1641       O  0.73246569  0.46155031  0.71670453    -0.78000
C1642       C  0.79457339  0.40312637  0.76506320     0.97300
O1643       O  0.74021446  0.39466521  0.69444203    -0.76000
O1644       O  0.74814501  0.42793103  0.82552452    -0.81200
C1645       C  0.69739726  0.41195009  0.78723030     0.99900
C1646       C  0.76259454  0.45469953  0.82866401     1.05800
O1647       O  0.71438042  0.43880414  0.78666223    -0.76800
C1648       C  0.73416016  0.37206635  0.70971658     1.04100
Fe1649     Fe  0.54387370  0.32510156  0.87272266     1.65800
Fe1650     Fe  0.57245607  0.32464594  0.94782825     1.73200
Fe1651     Fe  0.51041252  0.27049712  0.92597876     1.54400
O1652       O  0.98172772  0.27960034  0.90055366    -0.80500
O1653       O  0.58078967  0.29297513  0.94296895    -0.78800
O1654       O  0.00725655  0.32428860  0.88297947    -0.83000
O1655       O  0.52155968  0.28658680  0.84527530    -0.77900
O1656       O  0.00455290  0.28815799  0.96870277    -0.79700
O1657       O  0.60319393  0.34779336  0.90876654    -0.82400
C1658       C  0.51331390  0.26079158  0.85226960     0.98300
C1659       C  0.98380281  0.30214569  0.88814930     1.05800
O1660       O  0.54229112  0.30624165  0.91484422    -1.11400
O1661       O  0.56262363  0.35534848  0.95210168    -0.73800
O1662       O  0.56657301  0.36575087  0.89647407    -0.77300
O1663       O  0.51474005  0.25259377  0.88233565    -0.78000
C1664       C  0.57066107  0.37342894  0.92833251     0.97300
O1665       O  0.58037680  0.32619550  0.86105177    -0.76000
O1666       O  0.54644929  0.30359227  0.99133598    -0.81200
C1667       C  0.56386061  0.26884212  0.95519349     0.99900
C1668       C  0.51952943  0.29024533  0.99428946     1.05800
O1669       O  0.53680213  0.25807594  0.95325934    -0.76800
C1670       C  0.60286470  0.34400535  0.87602248     1.04100
Fe1671     Fe  0.93545017  0.14433924  0.62317301     1.65800
Fe1672     Fe  0.90511901  0.14590755  0.69681520     1.73200
Fe1673     Fe  0.96906204  0.19801348  0.67837922     1.54400
O1674       O  0.49767181  0.18817799  0.65498038    -0.80500
O1675       O  0.89879271  0.17880851  0.69052168    -0.78800
O1676       O  0.97178181  0.14443466  0.63458894    -0.83000
O1677       O  0.95853091  0.18326638  0.59667268    -0.77900
O1678       O  0.97114318  0.17753320  0.72048445    -0.79700
O1679       O  0.87522468  0.12338617  0.65680515    -0.82400
C1680       C  0.96807545  0.20934005  0.60425291     0.98300
C1681       C  0.49544288  0.16587060  0.64159495     1.05800
O1682       O  0.93636488  0.16341604  0.66500182    -1.12000
O1683       O  0.91310044  0.11410084  0.70259557    -0.73800
O1684       O  0.91172286  0.10379699  0.64688152    -0.77300
O1685       O  0.96834109  0.21791758  0.63477420    -0.78000
C1686       C  0.90613863  0.09613386  0.67865061     0.97300
O1687       O  0.89908894  0.14305982  0.60902608    -0.76000
O1688       O  0.92991672  0.16618359  0.74161437    -0.81200
C1689       C  0.91614966  0.20241962  0.70390871     0.99900
C1690       C  0.95663463  0.17769827  0.74530126     1.05800
O1691       O  0.94302784  0.21181216  0.70385534    -0.76800
C1692       C  0.87608928  0.12648681  0.62395908     1.04100
C1693       C  0.99867210  0.22134756  0.76795332     0.24700
C1694       C  0.97186319  0.19719280  0.77427672    -0.23400
C1695       C  0.95921806  0.19418985  0.80669427     0.19600
C1696       C  0.97313468  0.21477188  0.83225452     0.24700
C1697       C  0.99955435  0.23897442  0.82548291    -0.23300
C1698       C  0.51213165  0.24211633  0.79319180     0.19600
F1699       F  0.53753233  0.26526909  0.78608814    -0.13300
F1700       F  0.51141794  0.22577151  0.73663291    -0.15600
F1701       F  0.96024727  0.21168472  0.86323101    -0.15600
F1702       F  0.93328770  0.17167839  0.81343437    -0.13300
C1703       C  0.96592248  0.22753251  0.54616548     0.24700
C1704       C  0.98046752  0.23095833  0.57708548    -0.23400
C1705       C  0.00702873  0.25548465  0.58223024     0.19600
C1706       C  0.51939475  0.27568565  0.55606092     0.24700
C1707       C  0.50513450  0.27200460  0.52458207    -0.23300
C1708       C  0.97784597  0.24790868  0.52034585     0.19600
F1709       F  0.96304140  0.24308248  0.49047127    -0.13300
F1710       F  0.94002144  0.20441511  0.54098859    -0.15600
F1711       F  0.54553753  0.29843653  0.06120483    -0.15600
F1712       F  0.52158595  0.25929226  0.61209470    -0.13300
C1713       C  0.64916342  0.38910356  0.86470741     0.24700
C1714       C  0.62746772  0.36236656  0.85358055    -0.23400
C1715       C  0.62734568  0.35466066  0.81868913     0.19600
C1716       C  0.64851075  0.37268194  0.79602126     0.24700
C1717       C  0.67086183  0.39873983  0.80743082    -0.23300
C1718       C  0.67060679  0.40715493  0.84178087     0.19600
F1719       F  0.69199825  0.43205747  0.85379241    -0.13300
F1720       F  0.64977742  0.39779489  0.89772855    -0.15600
F1721       F  0.64798267  0.36393813  0.76300390    -0.15600
F1722       F  0.60704083  0.32921994  0.80634864    -0.13300
C1723       C  0.84265045  0.02276309  0.67643589     0.24700
C1724       C  0.83849330  0.01676142  0.71193118    -0.23400
C1725       C  0.85931687  0.03444742  0.73546635     0.19600
C1726       C  0.88339686  0.05882123  0.72391013     0.24700
C1727       C  0.88670224  0.06631881  0.68850760    -0.23300
C1728       C  0.86656115  0.04734161  0.66473464     0.19600
F1729       F  0.86872624  0.05354519  0.63054520    -0.13300
F1730       F  0.82275216  0.00547601  0.65324086    -0.15600
F1731       F  0.90271583  0.07593137  0.74776224    -0.15600
F1732       F  0.85598595  0.02846303  0.76974558    -0.13300
C1733       C  0.72516600  0.01312787  0.64043178     0.24700
C1734       C  0.71747579  0.00099967  0.60739224    -0.23400
C1735       C  0.71722575  0.47544821  0.60098516     0.19600
C1736       C  0.72530220  0.46296807  0.62653561     0.24700
C1737       C  0.73320272  0.47520934  0.65932371    -0.23300
C1738       C  0.73261067  0.00017257  0.66628036     0.19600
F1739       F  0.74026412  0.01263571  0.69786980    -0.13300
F1740       F  0.72572480  0.03758876  0.64762420    -0.15600
F1741       F  0.72511383  0.43869267  0.61928764    -0.15600
F1742       F  0.71040002  0.46298969  0.56934319    -0.13300
C1743       C  0.74898201  0.50714880  0.87556485     0.24700
C1744       C  0.74280692  0.49616829  0.90897149    -0.23400
C1745       C  0.74424913  0.97180307  0.91660615     0.19600
C1746       C  0.75123874  0.45835544  0.89090967     0.24700
C1747       C  0.75767441  0.46950690  0.85744484    -0.23300
C1748       C  0.75661511  0.49419446  0.85014390     0.19600
F1749       F  0.76158441  0.50516220  0.81778816    -0.13300
F1750       F  0.74778087  0.53055224  0.86754361    -0.15600
F1751       F  0.75143431  0.43438352  0.89862011    -0.15600
F1752       F  0.73776856  0.96035614  0.94870619    -0.13300
C1753       C  0.85033613  0.11671551  0.56723792     0.24700
C1754       C  0.85088825  0.10880984  0.60177743    -0.23400
C1755       C  0.82870511  0.08252724  0.61320331     0.19600
C1756       C  0.80631784  0.06499553  0.59091851     0.24700
C1757       C  0.80532972  0.07359638  0.55699307    -0.23300
C1758       C  0.82783822  0.09942821  0.54532336     0.19600
F1759       F  0.82745213  0.10853347  0.51283894    -0.13300
F1760       F  0.87120779  0.14167997  0.55470816    -0.15600
F1761       F  0.78471510  0.04046316  0.60327289    -0.15600
F1762       F  0.82854906  0.07373222  0.64596770    -0.13300
C1763       C  0.61863873  0.43492538  0.98525905     0.24700
C1764       C  0.63767981  0.45365302  0.96107566    -0.23400
C1765       C  0.63158182  0.44844838  0.92562367     0.19600
C1766       C  0.60791279  0.42334564  0.91440172     0.24700
C1767       C  0.58975297  0.40328938  0.93865837    -0.23300
C1768       C  0.59458376  0.41025004  0.97426257     0.19600
F1769       F  0.57687841  0.39244259  0.99875706    -0.13300
F1770       F  0.62361353  0.44034710  0.51959529    -0.15600
F1771       F  0.60393979  0.41800286  0.87995443    -0.15600
F1772       F  0.64938467  0.46708820  0.90184018    -0.13300
C1773       C  0.54859058  0.15666152  0.58903047     0.24700
C1774       C  0.57219207  0.16847688  0.61115215    -0.23400
C1775       C  0.56923903  0.17712295  0.64477123     0.19600
C1776       C  0.54416538  0.17584670  0.65480257     0.24700
C1777       C  0.52113802  0.16513898  0.63217499    -0.23300
C1778       C  0.52317144  0.15470343  0.59962864     0.19600
F1779       F  0.50105287  0.14419048  0.57720379    -0.13300
F1780       F  0.55037446  0.14799933  0.55673052    -0.15600
F1781       F  0.54255160  0.18549312  0.68659129    -0.15600
F1782       F  0.59114047  0.18858608  0.66757181    -0.13300
C1783       C  0.60462979  0.26186903  0.96646202     0.24700
C1784       C  0.57721361  0.25571564  0.97560652    -0.23400
C1785       C  0.56642609  0.24322952  0.00803037     0.19600
C1786       C  0.58315937  0.23792309  0.53110825     0.24700
C1787       C  0.61100100  0.24507914  0.52217000    -0.23300
C1788       C  0.62130178  0.25694685  0.98938215     0.19600
F1789       F  0.64798736  0.26438681  0.47946770    -0.13300
F1790       F  0.61584113  0.27370443  0.93540886    -0.15600
F1791       F  0.57199955  0.22551743  0.56189944    -0.15600
F1792       F  0.54025356  0.23736121  0.01806385    -0.13300
C1793       C  0.73269857  0.32587282  0.69805140     0.24700
C1794       C  0.72676457  0.34693168  0.68764596    -0.23400
C1795       C  0.71695355  0.34581579  0.65361440     0.19600
C1796       C  0.71265311  0.32412231  0.63105205     0.24700
C1797       C  0.71775822  0.30263119  0.64161235    -0.23300
C1798       C  0.72828758  0.30396551  0.67524197     0.19600
F1799       F  0.73270264  0.28320782  0.68674591    -0.13300
F1800       F  0.74287391  0.32646891  0.73022952    -0.15600
F1801       F  0.70223670  0.32347544  0.59897254    -0.15600
F1802       F  0.71077736  0.36544042  0.64219490    -0.13300
C1803       C  0.67067152  0.09261029  0.55993028     0.24700
C1804       C  0.67041422  0.08630972  0.52430603    -0.23400
C1805       C  0.66797302  0.10395665  0.49997196     0.19600
C1806       C  0.66829401  0.12842300  0.51086249     0.24700
C1807       C  0.67145945  0.13584983  0.54604302    -0.23300
C1808       C  0.67174377  0.11743323  0.57054117     0.19600
F1809       F  0.67321026  0.12357286  0.60476235    -0.13300
F1810       F  0.67132508  0.07549174  0.58469193    -0.15600
F1811       F  0.66666968  0.14555056  0.48690280    -0.15600
F1812       F  0.66686754  0.09849477  0.96561118    -0.13300
C1813       C  0.86006781  0.21723136  0.73570812     0.24700
C1814       C  0.86863304  0.22609925  0.77011102    -0.23400
C1815       C  0.89535586  0.23083125  0.78079001     0.19600
C1816       C  0.91263583  0.22620961  0.75787854     0.24700
C1817       C  0.90331906  0.21619487  0.72407654    -0.23300
C1818       C  0.87714869  0.21248435  0.71315474     0.19600
F1819       F  0.86745892  0.20304572  0.68069767    -0.13300
F1820       F  0.83459615  0.21229089  0.72383914    -0.15600
F1821       F  0.93774215  0.23003047  0.76941771    -0.15600
F1822       F  0.90479503  0.23981621  0.81338584    -0.13300
C1823       C  0.92841223  0.30297300  0.83121790     0.24700
C1824       C  0.90992927  0.30393096  0.85581027    -0.23400
C1825       C  0.91768863  0.30696041  0.89114451     0.19600
C1826       C  0.94159915  0.30603219  0.90174109     0.24700
C1827       C  0.95847111  0.30269731  0.87734247    -0.23300
C1828       C  0.95251124  0.30238416  0.84199127     0.19600
F1829       F  0.96941184  0.30023743  0.81794330    -0.13300
F1830       F  0.92215704  0.30040469  0.79696930    -0.15600
F1831       F  0.94810883  0.30801731  0.93587472    -0.15600
F1832       F  0.90129446  0.30929271  0.91575374    -0.13300
C1833       C  0.72929162  0.24626315  0.95834317     0.24700
C1834       C  0.73355234  0.23938216  0.99162451    -0.23400
C1835       C  0.75907277  0.23993691  0.99933053     0.19600
C1836       C  0.77991806  0.24712732  0.97395770     0.24700
C1837       C  0.77591445  0.25458915  0.94070311    -0.23300
C1838       C  0.75026880  0.25405657  0.93324933     0.19600
F1839       F  0.74479210  0.25994010  0.90107880    -0.13300
F1840       F  0.70493106  0.24580441  0.95019772    -0.15600
F1841       F  0.80384291  0.24665793  0.98184919    -0.15600
F1842       F  0.76341042  0.23257856  0.53122140    -0.13300
C1843       C  0.73156905  0.21862502  0.68299704     0.24700
C1844       C  0.70474992  0.21545379  0.69014903    -0.23400
C1845       C  0.69833096  0.21909323  0.72411140     0.19600
C1846       C  0.71833523  0.22578854  0.75044212     0.24700
C1847       C  0.74535208  0.22964331  0.74298302    -0.23300
C1848       C  0.75167905  0.22589143  0.70907460     0.19600
F1849       F  0.77738879  0.22929091  0.70111204    -0.13300
F1850       F  0.73901870  0.21608159  0.65027474    -0.15600
F1851       F  0.71169061  0.22969047  0.78300965    -0.15600
F1852       F  0.67283065  0.21628542  0.73175244    -0.13300
C1853       C  0.74982341  0.16763274  0.92489702     0.24700
C1854       C  0.76118891  0.16884275  0.89182922    -0.23400
C1855       C  0.76566600  0.14682929  0.88164161     0.19600
C1856       C  0.76000917  0.12479053  0.90414335     0.24700
C1857       C  0.74957273  0.12390606  0.93777810    -0.23300
C1858       C  0.74424795  0.14550358  0.94773747     0.19600
F1859       F  0.73349004  0.14518229  0.97943384    -0.13300
F1860       F  0.74543870  0.18858191  0.93582737    -0.15600
F1861       F  0.76538814  0.10450522  0.89296928    -0.15600
F1862       F  0.77643179  0.14706851  0.84992970    -0.13300
C1863       C  0.81223513  0.34450811  0.76248361     0.24700
C1864       C  0.80767721  0.33569908  0.79718316    -0.23400
C1865       C  0.80292922  0.35154023  0.82167795     0.19600
C1866       C  0.80161260  0.37524935  0.81159650     0.24700
C1867       C  0.80400978  0.38314064  0.77625977    -0.23300
C1868       C  0.81013216  0.36781607  0.75200218     0.19600
F1869       F  0.81261856  0.37436121  0.71791519    -0.13300
F1870       F  0.81719189  0.32953706  0.73835648    -0.15600
F1871       F  0.79656220  0.38956409  0.83657697    -0.15600
F1872       F  0.79936704  0.34392410  0.85547141    -0.13300
Fe1873     Fe  0.83176349  0.77369347  0.29072297     1.65800
Fe1874     Fe  0.83105901  0.74308268  0.36505720     1.73200
Fe1875     Fe  0.77705355  0.75119890  0.34447383     1.54400
O1876       O  0.78582802  0.78923075  0.32041627    -0.80500
O1877       O  0.79904522  0.70281312  0.35939986    -0.78800
O1878       O  0.83031091  0.80923713  0.30148978    -0.83000
O1879       O  0.79299174  0.75667135  0.26351568    -0.77900
O1880       O  0.79575967  0.77436014  0.38722441    -0.79700
O1881       O  0.85440826  0.73631826  0.32538448    -0.82400
C1882       C  0.76702164  0.73880119  0.27039089     0.98300
C1883       C  0.80801929  0.81006306  0.30744796     1.05800
O1884       O  0.81275247  0.75526505  0.33252281    -1.11400
O1885       O  0.86209817  0.78378117  0.37027704    -0.73800
O1886       O  0.87235304  0.79187793  0.31461539    -0.77300
O1887       O  0.75859484  0.72946982  0.30056735    -0.78000
C1888       C  0.88014303  0.79436125  0.34635191     0.97300
O1889       O  0.83403084  0.73915725  0.27742397    -0.76000
O1890       O  0.80963879  0.74688635  0.40926446    -0.81200
C1891       C  0.77483170  0.69548740  0.37170285     0.99900
C1892       C  0.79633916  0.76032090  0.41226013     1.05800
O1893       O  0.76440418  0.71190449  0.37042857    -0.76800
C1894       C  0.85105465  0.73353303  0.29250286     1.04100
Fe1895     Fe  0.64735573  0.69683039  0.04108811     1.65800
Fe1896     Fe  0.64930084  0.72720269  0.11564695     1.73200
Fe1897     Fe  0.70371866  0.72099952  0.09251904     1.54400
O1898       O  0.69477571  0.68296264  0.06776181    -0.80500
O1899       O  0.67996923  0.76778553  0.11022978    -0.78800
O1900       O  0.64912670  0.66194764  0.05302956    -0.83000
O1901       O  0.68578719  0.71324411  0.01256735    -0.77900
O1902       O  0.68682798  0.69768390  0.13540419    -0.79700
O1903       O  0.62492180  0.73351300  0.07674012    -0.82400
C1904       C  0.71184929  0.73164088  0.01868926     0.98300
C1905       C  0.67184502  0.66159318  0.05688195     1.05800
O1906       O  0.66758821  0.71622196  0.08198769    -1.11400
O1907       O  0.62041242  0.68593530  0.12048655    -0.73800
O1908       O  0.60695442  0.67893791  0.06612391    -0.77300
O1909       O  0.72049844  0.74256353  0.04827882    -0.78000
C1910       C  0.60089910  0.67641357  0.09844801     0.97300
O1911       O  0.64478970  0.73103408  0.02793902    -0.76000
O1912       O  0.67177589  0.72393238  0.15874738    -0.81200
C1913       C  0.70465886  0.77589956  0.12151111     0.99900
C1914       C  0.68536530  0.71078322  0.16105511     1.05800
O1915       O  0.71593181  0.76021763  0.11920706    -0.76800
C1916       C  0.62816838  0.73680671  0.04385682     1.04100
Fe1917     Fe  0.70002661  0.53924984  0.45701818     1.65800
Fe1918     Fe  0.73042811  0.56822474  0.03180544     1.73200
Fe1919     Fe  0.72235409  0.50665939  0.00973873     1.54400
O1920       O  0.68422811  0.97768155  0.48472080    -0.80500
O1921       O  0.77079565  0.57715211  0.02617438    -0.78800
O1922       O  0.66424883  0.00242888  0.46774516    -0.83000
O1923       O  0.71641552  0.51728494  0.42922277    -0.77900
O1924       O  0.69907533  0.00088573  0.05267914    -0.79700
O1925       O  0.73765581  0.59879954  0.49261378    -0.82400
C1926       C  0.73437597  0.50943010  0.43596846     0.98300
C1927       C  0.66337215  0.97927204  0.47240640     1.05800
O1928       O  0.71833999  0.53821972  0.99868760    -1.11400
O1929       O  0.68949089  0.55762201  0.03671776    -0.73800
O1930       O  0.68228305  0.56175393  0.48143395    -0.77300
O1931       O  0.74432237  0.51103597  0.46594662    -0.78000
C1932       C  0.67948233  0.56609933  0.01345513     0.97300
O1933       O  0.73509074  0.57599565  0.44429280    -0.76000
O1934       O  0.72629948  0.54245738  0.07541000    -0.81200
C1935       C  0.77826481  0.56032310  0.03761773     0.99900
C1936       C  0.71269294  0.51561910  0.07814112     1.05800
O1937       O  0.76174304  0.53337599  0.03617554    -0.76800
C1938       C  0.74103783  0.59858134  0.45978917     1.04100
Fe1939     Fe  0.77543794  0.93125382  0.20788554     1.65800
Fe1940     Fe  0.74385498  0.90228458  0.28174578     1.73200
Fe1941     Fe  0.75397437  0.96482454  0.26064641     1.54400
O1942       O  0.79225879  0.49339596  0.23611504    -0.80500
O1943       O  0.70422957  0.89498367  0.27445375    -0.78800
O1944       O  0.81156055  0.96801139  0.21905802    -0.83000
O1945       O  0.75926537  0.95356983  0.17989298    -0.77900
O1946       O  0.77690147  0.96933637  0.30361786    -0.79700
O1947       O  0.73673512  0.87169862  0.24263080    -0.82400
C1948       C  0.74186035  0.96224284  0.18659543     0.98300
C1949       C  0.81283949  0.99139621  0.22372080     1.05800
O1950       O  0.75713712  0.93268778  0.24921510    -1.11400
O1951       O  0.78414836  0.91135171  0.28815981    -0.73800
O1952       O  0.79259185  0.90812312  0.23295726    -0.77300
O1953       O  0.73246177  0.96154637  0.21669994    -0.78000
C1954       C  0.79457161  0.90312255  0.26504842     0.97300
O1955       O  0.74019101  0.89464951  0.19444483    -0.76000
O1956       O  0.74814549  0.92792565  0.32551675    -0.81200
C1957       C  0.69739659  0.91194376  0.28722864     0.99900
C1958       C  0.76259832  0.95469396  0.32865370     1.05800
O1959       O  0.71437994  0.93879816  0.28665878    -0.76800
C1960       C  0.73415026  0.87205373  0.20971605     1.04100
Fe1961     Fe  0.54388559  0.82510423  0.37274580     1.65800
Fe1962     Fe  0.57246895  0.82464221  0.44784719     1.73200
Fe1963     Fe  0.51041971  0.77050042  0.42600245     1.54400
O1964       O  0.98173379  0.77961420  0.40058536    -0.80500
O1965       O  0.58079778  0.79296897  0.44298240    -0.78800
O1966       O  0.00726704  0.82429951  0.38300240    -0.83000
O1967       O  0.52156766  0.78659029  0.34529735    -0.77900
O1968       O  0.00456823  0.78817192  0.46873130    -0.79700
O1969       O  0.60320695  0.84779127  0.40878598    -0.82400
C1970       C  0.51331423  0.76079305  0.35229040     0.98300
C1971       C  0.98381177  0.80215916  0.38817527     1.05800
O1972       O  0.54230204  0.80624113  0.41486465    -1.11400
O1973       O  0.56263480  0.85534207  0.45212497    -0.73800
O1974       O  0.56658877  0.86575225  0.39650078    -0.77300
O1975       O  0.51473555  0.75259174  0.38235645    -0.78000
C1976       C  0.57067683  0.87342617  0.42836100     0.97300
O1977       O  0.58038684  0.82619456  0.36107246    -0.76000
O1978       O  0.54646634  0.80359043  0.49135638    -0.81200
C1979       C  0.56386649  0.76883628  0.45520634     0.99900
C1980       C  0.51954727  0.79025024  0.49431295     1.05800
O1981       O  0.53680811  0.75807380  0.45327624    -0.76800
C1982       C  0.60287608  0.84400322  0.37604197     1.04100
Fe1983     Fe  0.93544885  0.64434860  0.12317592     1.65800
Fe1984     Fe  0.90511853  0.64592026  0.19681763     1.73200
Fe1985     Fe  0.96906395  0.69802309  0.17838536     1.54400
O1986       O  0.49767344  0.68818905  0.15498869    -0.80500
O1987       O  0.89879424  0.67882165  0.19051777    -0.78800
O1988       O  0.97178218  0.64444467  0.13458693    -0.83000
O1989       O  0.95852908  0.68327509  0.09667533    -0.77900
O1990       O  0.97114245  0.67754633  0.22049601    -0.79700
O1991       O  0.87522309  0.62339525  0.15680876    -0.82400
C1992       C  0.96807867  0.70934921  0.10425739     0.98300
C1993       C  0.49544505  0.66588342  0.14159818     1.05800
O1994       O  0.93636578  0.66342633  0.16500575    -1.12000
O1995       O  0.91309966  0.61411389  0.20260157    -0.73800
O1996       O  0.91172256  0.60380790  0.14688778    -0.77300
O1997       O  0.96834753  0.71792711  0.13477908    -0.78000
C1998       C  0.90613687  0.59614616  0.17865732     0.97300
O1999       O  0.89908482  0.64306603  0.10902830    -0.76000
O2000       O  0.92991427  0.66619858  0.24161825    -0.81200
C2001       C  0.91615097  0.70243279  0.20390491     0.99900
C2002       C  0.95663178  0.67771276  0.24530975     1.05800
O2003       O  0.94302909  0.71182450  0.20385438    -0.76800
C2004       C  0.87608562  0.62649163  0.12396218     1.04100
C2005       C  0.99867166  0.72135653  0.26797205     0.24700
C2006       C  0.97185802  0.69720593  0.27428839    -0.23400
C2007       C  0.95920741  0.69420597  0.30670194     0.19600
C2008       C  0.97312428  0.71478515  0.33226566     0.24700
C2009       C  0.99954993  0.73898235  0.32550168    -0.23300
C2010       C  0.51213329  0.74211952  0.29321188     0.19600
F2011       F  0.53753838  0.76526849  0.28611400    -0.13300
F2012       F  0.51142229  0.72577782  0.23665206    -0.15600
F2013       F  0.96023177  0.71170077  0.36323785    -0.15600
F2014       F  0.93327154  0.67170032  0.31343482    -0.13300
C2015       C  0.96592910  0.72754474  0.04617164     0.24700
C2016       C  0.98047301  0.73096820  0.07709178    -0.23400
C2017       C  0.00703498  0.75549309  0.08223882     0.19600
C2018       C  0.51939858  0.77569746  0.05607084     0.24700
C2019       C  0.50513982  0.77201609  0.02459067    -0.23300
C2020       C  0.97785491  0.74792147  0.02035342     0.19600
F2021       F  0.96305150  0.74309746  0.99047823    -0.13300
F2022       F  0.94002711  0.70442912  0.04099330    -0.15600
F2023       F  0.54555237  0.79844855  0.56123121    -0.15600
F2024       F  0.52158656  0.75930418  0.11210580    -0.13300
C2025       C  0.64916526  0.88910888  0.36471147     0.24700
C2026       C  0.62747825  0.86236255  0.35359800    -0.23400
C2027       C  0.62736002  0.85464430  0.31871347     0.19600
C2028       C  0.64851833  0.87266407  0.29603778     0.24700
C2029       C  0.67086265  0.89873175  0.30743402    -0.23300
C2030       C  0.67060474  0.90715787  0.34177818     0.19600
F2031       F  0.69198902  0.93207016  0.35377757    -0.13300
F2032       F  0.64977343  0.89781209  0.39772529    -0.15600
F2033       F  0.64799101  0.86390922  0.26302625    -0.15600
F2034       F  0.60706509  0.82919279  0.30638800    -0.13300
C2035       C  0.84264085  0.52278010  0.17644603     0.24700
C2036       C  0.83848964  0.51677449  0.21194068    -0.23400
C2037       C  0.85931522  0.53445994  0.23547427     0.19600
C2038       C  0.88339435  0.55883391  0.22391672     0.24700
C2039       C  0.88669685  0.56633233  0.18851459    -0.23300
C2040       C  0.86655045  0.54735880  0.16474361     0.19600
F2041       F  0.86870939  0.55356635  0.13055570    -0.13300
F2042       F  0.82273765  0.50549680  0.15325336    -0.15600
F2043       F  0.90271556  0.57594332  0.24776730    -0.15600
F2044       F  0.85598702  0.52847503  0.26975343    -0.13300
C2045       C  0.72516191  0.51312980  0.14044536     0.24700
C2046       C  0.71744993  0.50098664  0.10741493    -0.23400
C2047       C  0.71720024  0.97543334  0.10098422     0.19600
C2048       C  0.72527436  0.96295055  0.12653379     0.24700
C2049       C  0.73318768  0.97519730  0.15931774    -0.23300
C2050       C  0.73261282  0.50018045  0.16629472     0.19600
F2051       F  0.74029034  0.51265898  0.19787370    -0.13300
F2052       F  0.72574019  0.53760182  0.14762654    -0.15600
F2053       F  0.72507193  0.93866771  0.11928868    -0.15600
F2054       F  0.71036161  0.96296881  0.06934613    -0.13300
C2055       C  0.74899879  0.00715300  0.37555090     0.24700
C2056       C  0.74282673  0.99617617  0.40895951    -0.23400
C2057       C  0.74425098  0.47180533  0.41661608     0.19600
C2058       C  0.75125128  0.95835807  0.39090028     0.24700
C2059       C  0.75768301  0.96950541  0.35743339    -0.23300
C2060       C  0.75662644  0.99419400  0.35013020     0.19600
F2061       F  0.76159300  0.00515827  0.31777269    -0.13300
F2062       F  0.74779942  0.03055699  0.36752729    -0.15600
F2063       F  0.75144597  0.93438610  0.39861320    -0.15600
F2064       F  0.73776489  0.46035714  0.44871526    -0.13300
C2065       C  0.85033500  0.61669555  0.06723219     0.24700
C2066       C  0.85088267  0.60880868  0.10178247    -0.23400
C2067       C  0.82868904  0.58253820  0.11322605     0.19600
C2068       C  0.80629755  0.56500173  0.09094820     0.24700
C2069       C  0.80531455  0.57358499  0.05701159    -0.23300
C2070       C  0.82783199  0.59940401  0.04532494     0.19600
F2071       F  0.82745049  0.60849263  0.01282960    -0.13300
F2072       F  0.87121635  0.64164618  0.05468315    -0.15600
F2073       F  0.78468596  0.54048284  0.10331906    -0.15600
F2074       F  0.82852600  0.57376008  0.14600142    -0.13300
C2075       C  0.61869856  0.93491332  0.48527677     0.24700
C2076       C  0.63769661  0.95366307  0.46107790    -0.23400
C2077       C  0.63155918  0.94846851  0.42563231     0.19600
C2078       C  0.60789216  0.92335759  0.41442628     0.24700
C2079       C  0.58977227  0.90328444  0.43869326    -0.23300
C2080       C  0.59464350  0.91023157  0.47429893     0.19600
F2081       F  0.57698066  0.89240665  0.49881035    -0.13300
F2082       F  0.62366637  0.94032234  0.01960601    -0.15600
F2083       F  0.60388167  0.91802647  0.37997953    -0.15600
F2084       F  0.64932482  0.96712490  0.40183664    -0.13300
C2085       C  0.54859551  0.65667898  0.08903210     0.24700
C2086       C  0.57219333  0.66848443  0.11116010    -0.23400
C2087       C  0.56923582  0.67712116  0.14478272     0.19600
C2088       C  0.54416326  0.67584847  0.15481156     0.24700
C2089       C  0.52114025  0.66515169  0.13217794    -0.23300
C2090       C  0.52317703  0.65472375  0.09962780     0.19600
F2091       F  0.50106255  0.64422090  0.07719727    -0.13300
F2092       F  0.55038271  0.64802420  0.05672908    -0.15600
F2093       F  0.54254601  0.68548690  0.18660398    -0.15600
F2094       F  0.59113227  0.68857131  0.16759094    -0.13300
C2095       C  0.60463022  0.76185353  0.46646283     0.24700
C2096       C  0.57721773  0.75570663  0.47561562    -0.23400
C2097       C  0.56643670  0.74322914  0.50804493     0.19600
C2098       C  0.58317843  0.73794191  0.03112206     0.24700
C2099       C  0.61101519  0.74508676  0.02217488    -0.23300
C2100       C  0.62130664  0.75693677  0.48938167     0.19600
F2101       F  0.64799061  0.76437310  0.97945742    -0.13300
F2102       F  0.61583426  0.77367942  0.43540341    -0.15600
F2103       F  0.57202480  0.72554838  0.06192066    -0.15600
F2104       F  0.54026725  0.73736590  0.51808538    -0.13300
C2105       C  0.73269810  0.82586410  0.19805546     0.24700
C2106       C  0.72676743  0.84692369  0.18764300    -0.23400
C2107       C  0.71697291  0.84581369  0.15360337     0.19600
C2108       C  0.71268263  0.82412388  0.13104154     0.24700
C2109       C  0.71777902  0.80262945  0.14161089    -0.23300
C2110       C  0.72829596  0.80395974  0.17524664     0.19600
F2111       F  0.73270621  0.78320050  0.18675650    -0.13300
F2112       F  0.74285966  0.82645524  0.23024062    -0.15600
F2113       F  0.70228165  0.82348207  0.09895376    -0.15600
F2114       F  0.71080233  0.86543991  0.14217462    -0.13300
C2115       C  0.67068225  0.59261031  0.05996010     0.24700
C2116       C  0.67039811  0.58629400  0.02433655    -0.23400
C2117       C  0.66793154  0.60392572  0.00000280     0.19600
C2118       C  0.66825272  0.62839269  0.01088992     0.24700
C2119       C  0.67144386  0.63583512  0.04606622    -0.23300
C2120       C  0.67175603  0.61743455  0.07056639     0.19600
F2121       F  0.67325084  0.62359096  0.10478503    -0.13300
F2122       F  0.67136200  0.57550737  0.08472422    -0.15600
F2123       F  0.66660696  0.64550753  0.98692940    -0.15600
F2124       F  0.66689830  0.59851349  0.46561132    -0.13300
C2125       C  0.86006489  0.71723618  0.23571057     0.24700
C2126       C  0.86863461  0.72610942  0.27011083    -0.23400
C2127       C  0.89536110  0.73084872  0.28078448     0.19600
C2128       C  0.91264088  0.72622915  0.25787058     0.24700
C2129       C  0.90331964  0.71620784  0.22407179    -0.23300
C2130       C  0.87714522  0.71249027  0.21315486     0.19600
F2131       F  0.86745093  0.70304546  0.18070084    -0.13300
F2132       F  0.83458949  0.71228911  0.22384724    -0.15600
F2133       F  0.93775181  0.73005866  0.26940459    -0.15600
F2134       F  0.90480428  0.73983939  0.31337759    -0.13300
C2135       C  0.92842424  0.80298445  0.33123375     0.24700
C2136       C  0.90993905  0.80394211  0.35582298    -0.23400
C2137       C  0.91769743  0.80697528  0.39115768     0.19600
C2138       C  0.94160809  0.80604895  0.40175875     0.24700
C2139       C  0.95848161  0.80271267  0.37736383    -0.23300
C2140       C  0.95252350  0.80239748  0.34201150     0.19600
F2141       F  0.96942572  0.80024984  0.31796671    -0.13300
F2142       F  0.92217075  0.80041425  0.29698462    -0.15600
F2143       F  0.94811609  0.80803686  0.43589307    -0.15600
F2144       F  0.90130183  0.80930923  0.41576347    -0.13300
C2145       C  0.72935305  0.74638258  0.45839556     0.24700
C2146       C  0.73355931  0.73937757  0.49163216    -0.23400
C2147       C  0.75903376  0.73983149  0.49930534     0.19600
C2148       C  0.77988608  0.74703666  0.47393876     0.24700
C2149       C  0.77593644  0.75461341  0.44072421    -0.23300
C2150       C  0.75033844  0.75419135  0.43330924     0.19600
F2151       F  0.74491191  0.76019978  0.40118100    -0.13300
F2152       F  0.70503941  0.74603201  0.45028968    -0.15600
F2153       F  0.80376185  0.74646266  0.48179517    -0.15600
F2154       F  0.76332513  0.73237926  0.03117894    -0.13300
C2155       C  0.73156363  0.71861500  0.18302109     0.24700
C2156       C  0.70475072  0.71546066  0.19016870    -0.23400
C2157       C  0.69834199  0.71912753  0.22412533     0.19600
C2158       C  0.71834897  0.72583061  0.25045459     0.24700
C2159       C  0.74535828  0.72966534  0.24299944    -0.23300
C2160       C  0.75167656  0.72588933  0.20909693     0.19600
F2161       F  0.77738026  0.72927185  0.20113908    -0.13300
F2162       F  0.73900517  0.71604765  0.15030366    -0.15600
F2163       F  0.71171519  0.72975964  0.28301586    -0.15600
F2164       F  0.67284959  0.71634041  0.23176170    -0.13300
C2165       C  0.74978824  0.66761922  0.42487890     0.24700
C2166       C  0.76118973  0.66884675  0.39182953    -0.23400
C2167       C  0.76569406  0.64684634  0.38165976     0.19600
C2168       C  0.76003342  0.62480757  0.40416352     0.24700
C2169       C  0.74956541  0.62390880  0.43778223    -0.23300
C2170       C  0.74421013  0.64549015  0.44772196     0.19600
F2171       F  0.73341822  0.64515190  0.47940075    -0.13300
F2172       F  0.74536706  0.68854981  0.43578879    -0.15600
F2173       F  0.76544034  0.60453652  0.39300904    -0.15600
F2174       F  0.77648972  0.64709800  0.34996389    -0.13300
C2175       C  0.81221337  0.84449222  0.26247963     0.24700
C2176       C  0.80768893  0.83571105  0.29718970    -0.23400
C2177       C  0.80297528  0.85157720  0.32168270     0.19600
C2178       C  0.80165796  0.87528369  0.31158995     0.24700
C2179       C  0.80401911  0.88314601  0.27624522    -0.23300
C2180       C  0.81010957  0.86779728  0.25198831     0.19600
F2181       F  0.81256002  0.87431375  0.21789391    -0.13300
F2182       F  0.81713734  0.82949642  0.23835455    -0.15600
F2183       F  0.79664181  0.88962471  0.33656843    -0.15600
F2184       F  0.79944580  0.84398731  0.35548485    -0.13300
Fe2185     Fe  0.83176181  0.77368861  0.79072917     1.65800
Fe2186     Fe  0.83106067  0.74308173  0.86506608     1.73200
Fe2187     Fe  0.77705334  0.75119555  0.84448233     1.54400
O2188       O  0.78582604  0.78922628  0.82042418    -0.80500
O2189       O  0.79904735  0.70281130  0.85941267    -0.78800
O2190       O  0.83030736  0.80923226  0.80149244    -0.83000
O2191       O  0.79298937  0.75666345  0.76352343    -0.77900
O2192       O  0.79576182  0.77435879  0.88723076    -0.79700
O2193       O  0.85440915  0.73631591  0.82539434    -0.82400
C2194       C  0.76701923  0.73879412  0.77039951     0.98300
C2195       C  0.80801611  0.81005831  0.80745342     1.05800
O2196       O  0.81275216  0.75526150  0.83253035    -1.11400
O2197       O  0.86209956  0.78378096  0.87028231    -0.73800
O2198       O  0.87235190  0.79187550  0.81461988    -0.77300
O2199       O  0.75859240  0.72946510  0.80057689    -0.78000
C2200       C  0.88014338  0.79435961  0.84635582     0.97300
O2201       O  0.83403154  0.73915289  0.77743269    -0.76000
O2202       O  0.80964160  0.74688645  0.90927312    -0.81200
C2203       C  0.77483325  0.69548538  0.87171389     0.99900
C2204       C  0.79634153  0.76032046  0.91226730     1.05800
O2205       O  0.76440532  0.71190213  0.87043829    -0.76800
C2206       C  0.85105546  0.73352920  0.79251321     1.04100
Fe2207     Fe  0.64735591  0.69682779  0.54109205     1.65800
Fe2208     Fe  0.64930573  0.72720490  0.61564886     1.73200
Fe2209     Fe  0.70372176  0.72099880  0.59251737     1.54400
O2210       O  0.69477737  0.68296101  0.56776022    -0.80500
O2211       O  0.67997563  0.76778652  0.61022457    -0.78800
O2212       O  0.64912727  0.66194498  0.55303321    -0.83000
O2213       O  0.68578584  0.71324093  0.51256685    -0.77900
O2214       O  0.68683434  0.69768521  0.63540479    -0.79700
O2215       O  0.62492425  0.73351305  0.57674397    -0.82400
C2216       C  0.71184824  0.73163842  0.51868644     0.98300
C2217       C  0.67184607  0.66159097  0.55688249     1.05800
O2218       O  0.66758993  0.71621977  0.58199003    -1.11400
O2219       O  0.62041319  0.68593956  0.62049632    -0.73800
O2220       O  0.60695621  0.67893586  0.56613256    -0.77300
O2221       O  0.72049879  0.74256165  0.54827541    -0.78000
C2222       C  0.60090021  0.67641179  0.59845683     0.97300
O2223       O  0.64479009  0.73103137  0.52794287    -0.76000
O2224       O  0.67178280  0.72393483  0.65874771    -0.81200
C2225       C  0.70466470  0.77590043  0.62150717     0.99900
C2226       C  0.68537096  0.71078425  0.66105583     1.05800
O2227       O  0.71593698  0.76021777  0.61920475    -0.76800
C2228       C  0.62816923  0.73680452  0.54386037     1.04100
Fe2229     Fe  0.70001626  0.53924526  0.95702339     1.65800
Fe2230     Fe  0.73043785  0.56823260  0.53180007     1.73200
Fe2231     Fe  0.72236954  0.50666876  0.50973353     1.54400
O2232       O  0.68422101  0.97767618  0.98472340    -0.80500
O2233       O  0.77080644  0.57716287  0.52616766    -0.78800
O2234       O  0.66424068  0.00242472  0.96775717    -0.83000
O2235       O  0.71640215  0.51727784  0.92922798    -0.77900
O2236       O  0.69908194  0.00089419  0.55267496    -0.79700
O2237       O  0.73764926  0.59879291  0.99261946    -0.82400
C2238       C  0.73436138  0.50942137  0.93597328     0.98300
C2239       C  0.66336447  0.97926768  0.97241298     1.05800
O2240       O  0.71835110  0.53822677  0.49868279    -1.11400
O2241       O  0.68950020  0.55762905  0.53671390    -0.73800
O2242       O  0.68227626  0.56175257  0.98143925    -0.77300
O2243       O  0.74430638  0.51102472  0.96595182    -0.78000
C2244       C  0.67948873  0.56610195  0.51344960     0.97300
O2245       O  0.73508246  0.57598911  0.94429778    -0.76000
O2246       O  0.72631213  0.54246602  0.57540497    -0.81200
C2247       C  0.77827737  0.56033548  0.53761196     0.99900
C2248       C  0.71270896  0.51562770  0.57813533     1.05800
O2249       O  0.76175764  0.53338822  0.53616944    -0.76800
C2250       C  0.74103147  0.59857508  0.95979497     1.04100
Fe2251     Fe  0.77544091  0.93125433  0.70788792     1.65800
Fe2252     Fe  0.74384757  0.90228282  0.78174216     1.73200
Fe2253     Fe  0.75397019  0.96482360  0.76064032     1.54400
O2254       O  0.79226036  0.49339960  0.73611092    -0.80500
O2255       O  0.70422362  0.89498436  0.77444324    -0.78800
O2256       O  0.81156224  0.96801005  0.71907109    -0.83000
O2257       O  0.75927382  0.95357405  0.67989040    -0.77900
O2258       O  0.77689298  0.96933641  0.80361640    -0.79700
O2259       O  0.73673031  0.87169787  0.74262632    -0.82400
C2260       C  0.74186635  0.96224516  0.68658789     0.98300
C2261       C  0.81283968  0.99139484  0.72372654     1.05800
O2262       O  0.75713428  0.93268681  0.74921285    -1.11400
O2263       O  0.78413946  0.91134717  0.78816375    -0.73800
O2264       O  0.79258931  0.90811998  0.73296350    -0.77300
O2265       O  0.73246119  0.96154374  0.71668986    -0.78000
C2266       C  0.79456420  0.90311734  0.76505534     0.97300
O2267       O  0.74019562  0.89465127  0.69443892    -0.76000
O2268       O  0.74813600  0.92792409  0.82551236    -0.81200
C2269       C  0.69739095  0.91194432  0.78721953     0.99900
C2270       C  0.76258854  0.95469249  0.82865089     1.05800
O2271       O  0.71437445  0.93879846  0.78664978    -0.76800
C2272       C  0.73415083  0.87205438  0.70971086     1.04100
Fe2273     Fe  0.54388453  0.82510780  0.87274037     1.65800
Fe2274     Fe  0.57246516  0.82464846  0.94784510     1.73200
Fe2275     Fe  0.51041955  0.77050441  0.92599674     1.54400
O2276       O  0.98173825  0.77961051  0.90057486    -0.80500
O2277       O  0.58079878  0.79297825  0.94298374    -0.78800
O2278       O  0.00726848  0.82429722  0.88299564    -0.83000
O2279       O  0.52156873  0.78659427  0.84529186    -0.77900
O2280       O  0.00456786  0.78817044  0.96872159    -0.79700
O2281       O  0.60320451  0.84779888  0.90878487    -0.82400
C2282       C  0.51331726  0.76079779  0.85228608     0.98300
C2283       C  0.98381418  0.80215532  0.88816704     1.05800
O2284       O  0.54230036  0.80624569  0.91486036    -1.11400
O2285       O  0.56262581  0.85534480  0.95211926    -0.73800
O2286       O  0.56658491  0.86575566  0.89649515    -0.77300
O2287       O  0.51474002  0.75259782  0.88235219    -0.78000
C2288       C  0.57066942  0.87342912  0.92835538     0.97300
O2289       O  0.58038624  0.82619814  0.86107221    -0.76000
O2290       O  0.54646073  0.80359446  0.99135299    -0.81200
C2291       C  0.56386803  0.76884449  0.95520524     0.99900
C2292       C  0.51954159  0.79025225  0.99430700     1.05800
O2293       O  0.53680939  0.75808019  0.95327262    -0.76800
C2294       C  0.60287463  0.84400835  0.87604116     1.04100
Fe2295     Fe  0.93545613  0.64435181  0.62318296     1.65800
Fe2296     Fe  0.90512253  0.64591594  0.69682514     1.73200
Fe2297     Fe  0.96906925  0.69802070  0.67839918     1.54400
O2298       O  0.49767765  0.68818154  0.65500399    -0.80500
O2299       O  0.89879831  0.67881754  0.69052988    -0.78800
O2300       O  0.97178849  0.64444625  0.63459391    -0.83000
O2301       O  0.95853762  0.68328044  0.59668827    -0.77900
O2302       O  0.97114280  0.67753645  0.72050495    -0.79700
O2303       O  0.87522925  0.62339561  0.65681322    -0.82400
C2304       C  0.96808774  0.70935428  0.60427247     0.98300
C2305       C  0.49544542  0.66587572  0.64160883     1.05800
O2306       O  0.93637116  0.66342561  0.66501494    -1.12000
O2307       O  0.91310294  0.61410839  0.70260481    -0.73800
O2308       O  0.91172897  0.60380910  0.64688872    -0.77300
O2309       O  0.96835720  0.71793060  0.63479538    -0.78000
C2310       C  0.90614280  0.59614384  0.67865701     0.97300
O2311       O  0.89909313  0.64307140  0.60903550    -0.76000
O2312       O  0.92991588  0.66619046  0.74162840    -0.81200
C2313       C  0.91615412  0.70242781  0.70391931     0.99900
C2314       C  0.95663332  0.67770442  0.74531891     1.05800
O2315       O  0.94303256  0.71181992  0.70386996    -0.76800
C2316       C  0.87609317  0.62649662  0.62396723     1.04100
C2317       C  0.99867111  0.72135436  0.76797032     0.24700
C2318       C  0.97186079  0.69720139  0.77429345    -0.23400
C2319       C  0.95921486  0.69420151  0.80671004     0.19600
C2320       C  0.97313397  0.71478260  0.83227096     0.24700
C2321       C  0.99955683  0.73898155  0.82550083    -0.23300
C2322       C  0.51213458  0.74211945  0.79321023     0.19600
F2323       F  0.53753984  0.76526728  0.78610944    -0.13300
F2324       F  0.51142135  0.72577114  0.73665348    -0.15600
F2325       F  0.96024633  0.71169812  0.86324674    -0.15600
F2326       F  0.93328173  0.67169383  0.81344885    -0.13300
C2327       C  0.96594077  0.72753965  0.54617914     0.24700
C2328       C  0.98047978  0.73097336  0.57710613    -0.23400
C2329       C  0.00703605  0.75550531  0.58225541     0.19600
C2330       C  0.51940909  0.77569787  0.55607685     0.24700
C2331       C  0.50514743  0.77201677  0.52459913    -0.23300
C2332       C  0.97786507  0.74791329  0.52035753     0.19600
F2333       F  0.96306755  0.74307862  0.49047560    -0.13300
F2334       F  0.94004510  0.70441621  0.54099665    -0.15600
F2335       F  0.54553997  0.79844977  0.06122911    -0.15600
F2336       F  0.52160147  0.75930514  0.61211065    -0.13300
C2337       C  0.64916318  0.88911383  0.86470615     0.24700
C2338       C  0.62747662  0.86236632  0.85359627    -0.23400
C2339       C  0.62735771  0.85464482  0.81871278     0.19600
C2340       C  0.64851448  0.87266321  0.79603477     0.24700
C2341       C  0.67085820  0.89873244  0.80742728    -0.23300
C2342       C  0.67060129  0.90716146  0.84177048     0.19600
F2343       F  0.69198494  0.93207545  0.85376639    -0.13300
F2344       F  0.64977229  0.89781971  0.89771889    -0.15600
F2345       F  0.64798606  0.86390545  0.76302443    -0.15600
F2346       F  0.60706348  0.82919173  0.80639064    -0.13300
C2347       C  0.84263090  0.52279129  0.67645157     0.24700
C2348       C  0.83849467  0.51677817  0.71194533    -0.23400
C2349       C  0.85933646  0.53445102  0.73547065     0.19600
C2350       C  0.88341560  0.55882277  0.72390760     0.24700
C2351       C  0.88670374  0.56632900  0.68850896    -0.23300
C2352       C  0.86654266  0.54736542  0.66474383     0.19600
F2353       F  0.86869005  0.55357985  0.63055871    -0.13300
F2354       F  0.82271294  0.50551905  0.65326618    -0.15600
F2355       F  0.90275176  0.57592322  0.74775031    -0.15600
F2356       F  0.85602342  0.52845732  0.76974776    -0.13300
C2357       C  0.72516398  0.51312859  0.64044286     0.24700
C2358       C  0.71747180  0.50099646  0.60740529    -0.23400
C2359       C  0.71722886  0.97545141  0.60096822     0.19600
C2360       C  0.72530119  0.96296668  0.62651759     0.24700
C2361       C  0.73319839  0.97520326  0.65930859    -0.23300
C2362       C  0.73261319  0.50017797  0.66629249     0.19600
F2363       F  0.74026963  0.51264512  0.69787952    -0.13300
F2364       F  0.72572196  0.53758962  0.64763157    -0.15600
F2365       F  0.72511179  0.93869135  0.61926556    -0.15600
F2366       F  0.71040584  0.96299715  0.56932369    -0.13300
C2367       C  0.74898928  0.00715003  0.87555306     0.24700
C2368       C  0.74281543  0.99617094  0.90896049    -0.23400
C2369       C  0.74424412  0.47180234  0.91661727     0.19600
C2370       C  0.75123831  0.95835253  0.89089755     0.24700
C2371       C  0.75767258  0.96950248  0.85743198    -0.23300
C2372       C  0.75661740  0.99419222  0.85013120     0.19600
F2373       F  0.76158587  0.00515884  0.81777488    -0.13300
F2374       F  0.74779143  0.03055525  0.86753181    -0.15600
F2375       F  0.75143091  0.93437910  0.89860806    -0.15600
F2376       F  0.73776193  0.46035377  0.94871640    -0.13300
C2377       C  0.85034408  0.61670963  0.56723737     0.24700
C2378       C  0.85089054  0.60881780  0.60178570    -0.23400
C2379       C  0.82869638  0.58254630  0.61322480     0.19600
C2380       C  0.80630720  0.56501148  0.59094367     0.24700
C2381       C  0.80532568  0.57359868  0.55700870    -0.23300
C2382       C  0.82784220  0.59942043  0.54532733     0.19600
F2383       F  0.82746149  0.60851352  0.51283429    -0.13300
F2384       F  0.87122531  0.64166252  0.55469351    -0.15600
F2385       F  0.78469627  0.54049013  0.60330988    -0.15600
F2386       F  0.82853034  0.57376536  0.64599946    -0.13300
C2387       C  0.61868486  0.93491344  0.98527657     0.24700
C2388       C  0.63768937  0.95366057  0.96108074    -0.23400
C2389       C  0.63155744  0.94846705  0.92563405     0.19600
C2390       C  0.60788962  0.92335861  0.91442433     0.24700
C2391       C  0.58976393  0.90328688  0.93868880    -0.23300
C2392       C  0.59462941  0.91023386  0.97429479     0.19600
F2393       F  0.57696056  0.89241028  0.99880305    -0.13300
F2394       F  0.62368581  0.94032198  0.51960552    -0.15600
F2395       F  0.60388410  0.91802788  0.87997714    -0.15600
F2396       F  0.64932872  0.96712218  0.90184122    -0.13300
C2397       C  0.54859964  0.65668908  0.58902849     0.24700
C2398       C  0.57219041  0.66847094  0.61116799    -0.23400
C2399       C  0.56922327  0.67707907  0.64480399     0.19600
C2400       C  0.54415154  0.67580859  0.65483353     0.24700
C2401       C  0.52113807  0.66513964  0.63218756    -0.23300
C2402       C  0.52318159  0.65473452  0.59962472     0.19600
F2403       F  0.50107519  0.64425679  0.57718362    -0.13300
F2404       F  0.55039433  0.64805997  0.55671312    -0.15600
F2405       F  0.54252591  0.68542220  0.68663887    -0.15600
F2406       F  0.59111001  0.68849934  0.66762688    -0.13300
C2407       C  0.60463250  0.76186229  0.96646186     0.24700
C2408       C  0.57721973  0.75571500  0.97561426    -0.23400
C2409       C  0.56643819  0.74323636  0.00804284     0.19600
C2410       C  0.58317787  0.73793671  0.53112496     0.24700
C2411       C  0.61101487  0.74508252  0.52217785    -0.23300
C2412       C  0.62130787  0.75694298  0.98937975     0.19600
F2413       F  0.64798946  0.76436738  0.47945916    -0.13300
F2414       F  0.61583765  0.77369058  0.93540379    -0.15600
F2415       F  0.57202495  0.72554419  0.56192426    -0.15600
F2416       F  0.54026913  0.73737412  0.01808366    -0.13300
C2417       C  0.73270011  0.82586513  0.69805193     0.24700
C2418       C  0.72676961  0.84692462  0.68763775    -0.23400
C2419       C  0.71697742  0.84581480  0.65359713     0.19600
C2420       C  0.71268868  0.82412517  0.63103569     0.24700
C2421       C  0.71778447  0.80263057  0.64160675    -0.23300
C2422       C  0.72829945  0.80396090  0.67524358     0.19600
F2423       F  0.73270910  0.78320161  0.68675507    -0.13300
F2424       F  0.74286020  0.82645651  0.73023799    -0.15600
F2425       F  0.70228963  0.82348346  0.59894681    -0.15600
F2426       F  0.71080736  0.86544104  0.64216680    -0.13300
C2427       C  0.67066734  0.59259945  0.55995221     0.24700
C2428       C  0.67039977  0.58629374  0.52432774    -0.23400
C2429       C  0.66794791  0.60393469  0.49999479     0.19600
C2430       C  0.66826940  0.62840123  0.51088472     0.24700
C2431       C  0.67144498  0.63583337  0.54606392    -0.23300
C2432       C  0.67173990  0.61742256  0.57056212     0.19600
F2433       F  0.67321779  0.62356835  0.60478252    -0.13300
F2434       F  0.67133215  0.57548698  0.58471389    -0.15600
F2435       F  0.66663882  0.64552531  0.48692522    -0.15600
F2436       F  0.66686569  0.59849408  0.96562079    -0.13300
C2437       C  0.86006489  0.71722773  0.73572397     0.24700
C2438       C  0.86863511  0.72610399  0.77012289    -0.23400
C2439       C  0.89536204  0.73084448  0.78079736     0.19600
C2440       C  0.91264211  0.72622433  0.75788448     0.24700
C2441       C  0.90332114  0.71620151  0.72408620    -0.23300
C2442       C  0.87714550  0.71248148  0.71316915     0.19600
F2443       F  0.86745049  0.70303404  0.68071618    -0.13300
F2444       F  0.83458838  0.71227792  0.72386089    -0.15600
F2445       F  0.93775334  0.73005497  0.76941936    -0.15600
F2446       F  0.90480505  0.73983660  0.81339002    -0.13300
C2447       C  0.92842288  0.80298044  0.83123236     0.24700
C2448       C  0.90993963  0.80393886  0.85582405    -0.23400
C2449       C  0.91770015  0.80697152  0.89115791     0.19600
C2450       C  0.94161119  0.80604456  0.90175570     0.24700
C2451       C  0.95848271  0.80270754  0.87735840    -0.23300
C2452       C  0.95252234  0.80239242  0.84200688     0.19600
F2453       F  0.96942268  0.80024432  0.81795970    -0.13300
F2454       F  0.92216732  0.80041061  0.79698384    -0.15600
F2455       F  0.94812175  0.80803292  0.93588923    -0.15600
F2456       F  0.90130652  0.80930598  0.91576606    -0.13300
C2457       C  0.72935210  0.74637651  0.95839675     0.24700
C2458       C  0.73356124  0.73937986  0.99163662    -0.23400
C2459       C  0.75903794  0.73983935  0.99931334     0.19600
C2460       C  0.77989019  0.74704299  0.97394720     0.24700
C2461       C  0.77593790  0.75461246  0.94072973    -0.23300
C2462       C  0.75033720  0.75418354  0.93331078     0.19600
F2463       F  0.74490790  0.76018323  0.90117918    -0.13300
F2464       F  0.70503567  0.74601905  0.95028706    -0.15600
F2465       F  0.80376850  0.74647484  0.98180687    -0.15600
F2466       F  0.76331872  0.73236484  0.53116802    -0.13300
C2467       C  0.73156570  0.71861008  0.68302716     0.24700
C2468       C  0.70475331  0.71545791  0.69017183    -0.23400
C2469       C  0.69834210  0.71912249  0.72412825     0.19600
C2470       C  0.71834677  0.72582262  0.75045982     0.24700
C2471       C  0.74535629  0.72965693  0.74300720    -0.23300
C2472       C  0.75167633  0.72588156  0.70910519     0.19600
F2473       F  0.77737988  0.72926267  0.70114983    -0.13300
F2474       F  0.73900931  0.71604375  0.65031043    -0.15600
F2475       F  0.71171075  0.72974973  0.78302076    -0.15600
F2476       F  0.67284963  0.71633612  0.73176211    -0.13300
C2477       C  0.74978938  0.66761696  0.92488927     0.24700
C2478       C  0.76118996  0.66884433  0.89183944    -0.23400
C2479       C  0.76569132  0.64684248  0.88166749     0.19600
C2480       C  0.76002829  0.62480209  0.90416971     0.24700
C2481       C  0.74956115  0.62390338  0.93778889    -0.23300
C2482       C  0.74420875  0.64548627  0.94773067     0.19600
F2483       F  0.73341688  0.64514768  0.97940960    -0.13300
F2484       F  0.74537161  0.68854928  0.93580137    -0.15600
F2485       F  0.76543182  0.60452923  0.89301304    -0.15600
F2486       F  0.77648600  0.64709416  0.84997097    -0.13300
C2487       C  0.81222155  0.84449676  0.76249065     0.24700
C2488       C  0.80768438  0.83570634  0.79719730    -0.23400
C2489       C  0.80295318  0.85156147  0.82168854     0.19600
C2490       C  0.80163285  0.87526667  0.81159742     0.24700
C2491       C  0.80400881  0.88313897  0.77625500    -0.23300
C2492       C  0.81011474  0.86780045  0.75200037     0.19600
F2493       F  0.81257885  0.87432614  0.71790819    -0.13300
F2494       F  0.81716063  0.82951091  0.73836683    -0.15600
F2495       F  0.79659946  0.88959623  0.83657443    -0.15600
F2496       F  0.79940967  0.84396221  0.85548770    -0.13300
loop_ 
_geom_bond_atom_site_label_1 
_geom_bond_atom_site_label_2 
_geom_bond_distance 
_geom_bond_site_symmetry_2 
_ccdc_geom_bond_type 
Fe1          O17   2.029       .  S
Fe1           O7   2.116       .  S
Fe1          O14   2.131       .  S
Fe1           O6   2.037       .  S
Fe1          O12   1.916       .  S
Fe2           O5   2.025       .  S
Fe2           O9   2.146       .  S
Fe2          O13   2.023       .  S
Fe2          O18   2.143       .  S
Fe2          O12   1.929       .  S
Fe3          O21   2.159       .  S
Fe3           O8   2.019       .  S
Fe3          O15   2.026       .  S
Fe3           O4   2.114       .  S
Fe3          O12   1.908       .  S
O4           C11   1.280       .  A
O5           C19   1.268       .  A
O6           C11   1.265       .  A
O7           C10   1.284       .  A
O8           C20   1.251       .  A
O9           C22   1.283       .  A
C10          O15   1.267       .  A
C10         C287   1.476       .  S
C11         C304   1.475       .  S
O13          C16   1.263       .  A
O14          C16   1.284       .  A
C16         C264   1.484       .  S
O17          C22   1.263       .  A
O18          C20   1.277       .  A
C19          O21   1.290       .  A
C19         C294   1.487       .  S
C20         C277   1.486       .  S
C22         C254   1.496       .  S
Fe23         O39   2.022       .  S
Fe23         O29   2.133       .  S
Fe23         O36   2.146       .  S
Fe23         O28   2.023       .  S
Fe23         O34   1.915       .  S
Fe24         O27   2.015       .  S
Fe24         O31   2.154       .  S
Fe24         O35   2.016       .  S
Fe24         O40   2.134       .  S
Fe24         O34   1.915       .  S
Fe25         O43   2.166       .  S
Fe25         O30   2.017       .  S
Fe25         O37   2.024       .  S
Fe25         O26   2.118       .  S
Fe25         O34   1.903       .  S
O26          C33   1.281       .  A
O27          C41   1.267       .  A
O28          C33   1.262       .  A
O29          C32   1.287       .  A
O30          C42   1.251       .  A
O31          C44   1.286       .  A
C32          O37   1.267       .  A
C32         C586   1.477   1_554  S
C33         C247   1.465       .  S
O35          C38   1.255       .  A
O36          C38   1.284       .  A
C38         C214   1.487       .  S
O39          C44   1.264       .  A
O40          C42   1.276       .  A
C41          O43   1.292       .  A
C41         C237   1.486       .  S
C42         C284   1.478       .  S
C44         C227   1.492       .  S
Fe45         O61   2.025       .  S
Fe45         O51   2.123       .  S
Fe45         O58   2.138       .  S
Fe45        O674   2.028       .  S
Fe45        O368   1.915       .  S
Fe46         O49   2.019       .  S
Fe46         O57   2.020       .  S
Fe46         O62   2.144       .  S
Fe46        O365   2.151   1_554  S
Fe46         O56   1.920   1_554  S
Fe47         O65   2.155       .  S
Fe47        O676   2.021       .  S
Fe47        O371   2.021   1_554  S
Fe47        O984   2.113   1_544  S
Fe47         O56   1.906   1_554  S
O48        Fe983   2.113       .  S
O48          C55   1.280       .  A
O49          C63   1.266       .  A
O50        Fe669   2.028       .  S
O50          C55   1.263       .  A
O51          C54   1.285       .  A
O52        Fe671   2.021       .  S
O52         C688   1.252       .  A
O53        Fe358   2.151       .  S
O53          C66   1.285       .  A
C54          O59   1.265       .  A
C54         C808   1.474   1_545  S
C55         C204   1.466       .  S
O56        Fe357   1.915       .  S
O57          C60   1.260       .  A
O58         C372   1.285       .  A
O59        Fe359   2.021       .  S
C60         O370   1.285   1_554  A
C60         C244   1.487       .  S
O61          C66   1.263       .  A
O62          C64   1.279       .  A
C63          O65   1.289       .  A
C63         C197   1.481       .  S
C64         O676   1.252       .  A
C64         C174   1.489       .  S
C66         C297   1.495       .  S
Fe67         O83   2.029       .  S
Fe67         O73   2.137       .  S
Fe67         O80   2.157       .  S
Fe67         O72   2.035       .  S
Fe67         O78   1.910       .  S
Fe68         O71   2.016       .  S
Fe68         O75   2.143       .  S
Fe68         O79   2.016       .  S
Fe68         O84   2.136       .  S
Fe68         O78   1.922       .  S
Fe69         O87   2.153       .  S
Fe69         O74   2.021       .  S
Fe69         O81   2.024       .  S
Fe69        O694   2.109       .  S
Fe69         O78   1.911       .  S
O70        Fe693   2.109       .  S
O70         C701   1.278       .  A
O71          C85   1.266       .  A
O72          C77   1.264       .  A
O73          C76   1.288       .  A
O74          C86   1.252       .  A
O75          C88   1.283       .  A
C76          O81   1.267       .  A
C76         C177   1.481       .  S
C77         O694   1.278       .  A
C77         C788   1.467       .  S
O79          C82   1.260       .  A
O80          C82   1.289       .  A
C82         C307   1.496       .  S
O83          C88   1.262       .  A
O84          C86   1.277       .  A
C85          O87   1.288       .  A
C85         C157   1.479       .  S
C86         C187   1.480       .  S
C88         C234   1.494       .  S
Fe89        O105   2.020       .  S
Fe89         O95   2.116       .  S
Fe89        O102   2.137       .  S
Fe89       O1342   2.022       .  S
Fe89        O100   1.913       .  S
Fe90         O93   2.019       .  S
Fe90         O97   2.142       .  S
Fe90        O101   2.020       .  S
Fe90        O106   2.133       .  S
Fe90        O100   1.919       .  S
Fe91        O109   2.160       .  S
Fe91        O103   2.026       .  S
Fe91       O1344   2.021       .  S
Fe91       O1340   2.117   1_455  S
Fe91        O100   1.907       .  S
O92       Fe1339   2.117       .  S
O92          C99   1.281       .  A
O93         C107   1.267       .  A
O94       Fe1337   2.022       .  S
O94          C99   1.262       .  A
O95          C98   1.282       .  A
O96       Fe1339   2.021       .  S
O96        C1356   1.253       .  A
O97         C110   1.282       .  A
C98         O103   1.266       .  A
C98        C1385   1.470   1_455  S
C99         C267   1.463       .  S
O101        C104   1.262       .  A
O102        C104   1.284       .  A
C104        C207   1.487       .  S
O105        C110   1.261       .  A
O106        C108   1.277       .  A
C107        O109   1.290       .  A
C107        C224   1.488       .  S
C108       O1344   1.253       .  A
C108        C459   1.487       .  S
C110        C154   1.490       .  S
Fe111       O127   2.031       .  S
Fe111       O117   2.124       .  S
Fe111       O124   2.142       .  S
Fe111       O116   2.034       .  S
Fe111       O122   1.913       .  S
Fe112       O115   2.021       .  S
Fe112       O119   2.133       .  S
Fe112       O123   2.018       .  S
Fe112       O128   2.133       .  S
Fe112       O122   1.927       .  S
Fe113       O131   2.160       .  S
Fe113       O118   2.019       .  S
Fe113       O125   2.025       .  S
Fe113      O1362   2.101       .  S
Fe113       O122   1.909       .  S
O114      Fe1361   2.101       .  S
O114        C121   1.278       .  A
O115        C129   1.268       .  A
O116       C1369   1.263       .  A
O117        C120   1.287       .  A
O118        C130   1.249       .  A
O119        C132   1.281       .  A
C120        O125   1.268       .  A
C120        C144   1.474       .  S
C121       O1364   1.263       .  A
C121        C217   1.473   1_655  S
O123        C126   1.262       .  A
O124        C126   1.287       .  A
C126        C167   1.486       .  S
O127        C132   1.263       .  A
O128        C130   1.275       .  A
C129        O131   1.290       .  A
C129        C257   1.486       .  S
C130        C134   1.480       .  S
C132        C194   1.492       .  S
C133        C134   1.418       .  A
C133       C1386   1.394       .  A
C133       F1388   1.359       .  S
C134        C135   1.402       .  A
C135        C136   1.401       .  A
C135        F142   1.358       .  S
C136        C137   1.411       .  A
C136        F141   1.358       .  S
C137       C1346   1.470       .  S
C137       C1386   1.395       .  A
C138       C1381   1.394   1_455  A
C138       C1385   1.395   1_455  A
C138        F139   1.358       .  S
F140       C1381   1.359   1_455  S
C143        C144   1.396       .  A
C143        C148   1.396       .  A
C143        F150   1.358       .  S
C144        C145   1.411       .  A
C145       C1394   1.402       .  A
C145       F1400   1.358       .  S
C146        C147   1.405       .  A
C146       C1393   1.402       .  A
C146        F463   1.358       .  S
C147        C420   1.487   1_554  S
C147       C1396   1.419   1_455  A
C148       C1395   1.419       .  A
C148        F149   1.358   1_554  S
F151        C458   1.358       .  S
F152       C1393   1.358       .  S
C153        C154   1.411       .  A
C153        C158   1.407       .  A
C153        F160   1.357       .  S
C154        C155   1.413       .  A
C155        C156   1.393       .  A
C155        F162   1.359       .  S
C156        C157   1.404       .  A
C156        F161   1.359       .  S
C157        C158   1.409       .  A
C158        F159   1.356       .  S
C163        C164   1.405       .  A
C163        C168   1.401       .  A
C163        F170   1.358       .  S
C164        C701   1.467   1_545  S
C164        C165   1.396       .  A
C165        C166   1.398       .  A
C165        F172   1.358       .  S
C166        C167   1.417       .  A
C166        F171   1.358       .  S
C167        C168   1.408       .  A
C168        F169   1.358       .  S
C173        C174   1.403       .  A
C173        C178   1.404       .  A
C173        F180   1.358       .  S
C174        C799   1.419   1_545  A
C175        C176   1.398       .  A
C175        C798   1.419       .  A
C175        F182   1.358       .  S
C176        C177   1.397       .  A
C176        F181   1.358       .  S
C177        C802   1.414       .  A
C178        C801   1.414   1_545  A
C178        F179   1.358       .  S
C183        C184   1.396       .  A
C183        C188   1.395       .  A
C183        F190   1.358       .  S
C184        C678   1.474       .  S
C184        C809   1.413       .  A
C185        C808   1.413       .  A
C185        C810   1.401       .  A
C185        F192   1.358       .  S
C186        C187   1.402       .  A
C186        C809   1.401       .  A
C186        F191   1.358       .  S
C187        C188   1.417       .  A
C188        F189   1.358       .  S
C193        C194   1.412       .  A
C193        C198   1.397       .  A
C193        F200   1.358       .  S
C194        C195   1.411       .  A
C195        C196   1.406       .  A
C195        F202   1.357       .  S
C196        C197   1.407       .  A
C196        F201   1.356       .  S
C197        C198   1.406       .  A
C198        F199   1.359       .  S
C203        C204   1.395       .  A
C203        C208   1.396       .  A
C203        F522   1.358       .  S
C204        C205   1.406       .  A
C205        C206   1.401       .  A
C205        F212   1.358       .  S
C206        C207   1.409       .  A
C206        F211   1.358       .  S
C207        C208   1.418       .  A
C208        F209   1.358       .  S
F210        C515   1.358   1_554  S
C213        C214   1.405       .  A
C213        C218   1.402       .  A
C213        F220   1.357       .  S
C214        C215   1.421       .  A
C215        C216   1.394       .  A
C215        F222   1.359       .  S
C216        C217   1.396       .  A
C216        F221   1.359       .  S
C217        C218   1.410       .  A
C218        F219   1.358       .  S
C223        C224   1.407       .  A
C223        C228   1.394       .  A
C223        F230   1.359       .  S
C224        C225   1.411       .  A
C225        C538   1.412       .  A
C225        F232   1.357       .  S
C226        C227   1.412       .  A
C226        C537   1.412       .  A
C226        F231   1.358       .  S
C227        C540   1.410   1_554  A
C228        C539   1.410       .  A
C228        F541   1.359       .  S
F229        C540   1.359       .  S
C233        C234   1.411       .  A
C233        C238   1.410       .  A
C233        F240   1.358       .  S
C234        C235   1.412       .  A
C235        C236   1.397       .  A
C235        F242   1.358       .  S
C236        C237   1.406       .  A
C236        F241   1.359       .  S
C237        C238   1.410       .  A
C238        F239   1.357       .  S
C243        C244   1.419       .  A
C243        C248   1.396       .  A
C243        F250   1.358       .  S
C244        C245   1.408   1_554  A
C245        C246   1.400   1_556  A
C245        F564   1.358       .  S
C246        C247   1.406       .  A
C246        F251   1.358   1_554  S
C247        C248   1.395       .  A
C248        F249   1.358       .  S
F252        C557   1.358       .  S
C253        C254   1.413       .  A
C253        C258   1.396       .  A
C253        F260   1.358       .  S
C254        C255   1.412       .  A
C255        C256   1.410       .  A
C255        F262   1.357       .  S
C256        C257   1.409       .  A
C256        F261   1.356       .  S
C257        C258   1.406       .  A
C258        F259   1.359       .  S
C263        C264   1.409       .  A
C263        C268   1.399       .  A
C263        F270   1.358       .  S
C264        C265   1.416       .  A
C265        C266   1.397       .  A
C265        F272   1.358       .  S
C266        C267   1.396       .  A
C266        F271   1.358       .  S
C267        C268   1.405       .  A
C268        F269   1.359       .  S
C273        C274   1.396       .  A
C273        C278   1.397       .  A
C273        F280   1.358       .  S
C274        C344   1.477       .  S
C274        C275   1.413       .  A
C275        C276   1.403       .  A
C275        F594   1.358       .  S
C276        C277   1.402       .  A
C276        F281   1.358       .  S
C277        C278   1.419       .  A
C278        F279   1.358       .  S
F282        C587   1.358   1_554  S
C283        C284   1.416       .  A
C283        C288   1.394       .  A
C283        F290   1.359       .  S
C284        C285   1.400       .  A
C285        C286   1.401       .  A
C285        F292   1.357       .  S
C286        C287   1.414       .  A
C286        F291   1.358       .  S
C287        C288   1.398       .  A
C288        F289   1.358       .  S
C293        C294   1.410       .  A
C293        C298   1.410       .  A
C293        F300   1.356       .  S
C294        C295   1.406       .  A
C295        C296   1.397       .  A
C295        F302   1.359       .  S
C296        C297   1.413       .  A
C296        F301   1.359       .  S
C297        C298   1.411       .  A
C298        F299   1.357       .  S
C303        C304   1.408       .  A
C303        C308   1.404       .  A
C303        F310   1.358       .  S
C304        C305   1.396       .  A
C305        C306   1.398       .  A
C305        F312   1.358       .  S
C306        C307   1.422       .  A
C306        F311   1.358       .  S
C307        C308   1.408       .  A
C308        F309   1.357       .  S
Fe313       O329   2.029       .  S
Fe313       O319   2.116       .  S
Fe313       O326   2.131       .  S
Fe313       O318   2.037       .  S
Fe313       O324   1.916       .  S
Fe314       O317   2.025       .  S
Fe314       O321   2.146       .  S
Fe314       O325   2.023       .  S
Fe314       O330   2.143       .  S
Fe314       O324   1.929       .  S
Fe315       O333   2.159       .  S
Fe315       O320   2.019       .  S
Fe315       O327   2.026       .  S
Fe315       O316   2.114       .  S
Fe315       O324   1.908       .  S
O316        C323   1.280       .  A
O317        C331   1.268       .  A
O318        C323   1.265       .  A
O319        C322   1.284       .  A
O320        C332   1.251       .  A
O321        C334   1.283       .  A
C322        O327   1.267       .  A
C322        C599   1.476       .  S
C323        C616   1.475       .  S
O325        C328   1.263       .  A
O326        C328   1.284       .  A
C328        C576   1.484       .  S
O329        C334   1.263       .  A
O330        C332   1.277       .  A
C331        O333   1.290       .  A
C331        C606   1.487       .  S
C332        C589   1.486       .  S
C334        C566   1.496       .  S
Fe335       O351   2.022       .  S
Fe335       O341   2.133       .  S
Fe335       O348   2.146       .  S
Fe335       O340   2.023       .  S
Fe335       O346   1.915       .  S
Fe336       O339   2.015       .  S
Fe336       O343   2.154       .  S
Fe336       O347   2.016       .  S
Fe336       O352   2.134       .  S
Fe336       O346   1.915       .  S
Fe337       O355   2.166       .  S
Fe337       O342   2.017       .  S
Fe337       O349   2.024       .  S
Fe337       O338   2.118       .  S
Fe337       O346   1.903       .  S
O338        C345   1.281       .  A
O339        C353   1.267       .  A
O340        C345   1.262       .  A
O341        C344   1.287       .  A
O342        C354   1.251       .  A
O343        C356   1.286       .  A
C344        O349   1.267       .  A
C345        C559   1.465       .  S
O347        C350   1.255       .  A
O348        C350   1.284       .  A
C350        C526   1.487       .  S
O351        C356   1.264       .  A
O352        C354   1.276       .  A
C353        O355   1.292       .  A
C353        C549   1.486       .  S
C354        C596   1.478       .  S
C356        C539   1.492       .  S
Fe357       O373   2.025       .  S
Fe357       O363   2.123       .  S
Fe357       O370   2.138       .  S
Fe357       O986   2.028       .  S
Fe358       O361   2.019       .  S
Fe358       O369   2.020       .  S
Fe358       O374   2.144       .  S
Fe358       O368   1.920       .  S
Fe359       O377   2.155       .  S
Fe359       O988   2.021       .  S
Fe359       O672   2.113   1_545  S
Fe359       O368   1.906       .  S
O360       Fe671   2.113   1_556  S
O360        C367   1.280       .  A
O361        C375   1.266       .  A
O362       Fe981   2.028       .  S
O362        C367   1.263       .  A
O363        C366   1.285       .  A
O364       Fe983   2.021       .  S
O364       C1000   1.252       .  A
O365        C378   1.285       .  A
C366        O371   1.265       .  A
C366       C1120   1.474   1_545  S
C367        C516   1.466       .  S
O369        C372   1.260       .  A
C372        C556   1.487       .  S
O373        C378   1.263       .  A
O374        C376   1.279       .  A
C375        O377   1.289       .  A
C375        C509   1.481       .  S
C376        O988   1.252       .  A
C376        C486   1.489       .  S
C378        C609   1.495       .  S
Fe379       O395   2.029       .  S
Fe379       O385   2.137       .  S
Fe379       O392   2.157       .  S
Fe379       O384   2.035       .  S
Fe379       O390   1.910       .  S
Fe380       O383   2.016       .  S
Fe380       O387   2.143       .  S
Fe380       O391   2.016       .  S
Fe380       O396   2.136       .  S
Fe380       O390   1.922       .  S
Fe381       O399   2.153       .  S
Fe381       O386   2.021       .  S
Fe381       O393   2.024       .  S
Fe381      O1006   2.109       .  S
Fe381       O390   1.911       .  S
O382      Fe1005   2.109       .  S
O382       C1013   1.278       .  A
O383        C397   1.266       .  A
O384        C389   1.264       .  A
O385        C388   1.288       .  A
O386        C398   1.252       .  A
O387        C400   1.283       .  A
C388        O393   1.267       .  A
C388        C489   1.481       .  S
C389       O1006   1.278       .  A
C389       C1100   1.467       .  S
O391        C394   1.260       .  A
O392        C394   1.289       .  A
C394        C619   1.496       .  S
O395        C400   1.262       .  A
O396        C398   1.277       .  A
C397        O399   1.288       .  A
C397        C469   1.479       .  S
C398        C499   1.480       .  S
C400        C546   1.494       .  S
Fe401       O417   2.020       .  S
Fe401       O407   2.116       .  S
Fe401       O414   2.137       .  S
Fe401      O1654   2.022       .  S
Fe401       O412   1.913       .  S
Fe402       O405   2.019       .  S
Fe402       O409   2.142       .  S
Fe402       O413   2.020       .  S
Fe402       O418   2.133       .  S
Fe402       O412   1.919       .  S
Fe403       O421   2.160       .  S
Fe403      O1656   2.021       .  S
Fe403       O415   2.026       .  S
Fe403      O1652   2.117   1_455  S
Fe403       O412   1.907       .  S
O404      Fe1651   2.117       .  S
O404        C411   1.281       .  A
O405        C419   1.267       .  A
O406      Fe1649   2.022       .  S
O406        C411   1.262       .  A
O407        C410   1.282       .  A
O408      Fe1651   2.021       .  S
O408       C1668   1.253       .  A
O409        C422   1.282       .  A
C410        O415   1.266       .  A
C410       C1697   1.470   1_455  S
C411        C579   1.463       .  S
O413        C416   1.262       .  A
O414        C416   1.284       .  A
C416        C519   1.487       .  S
O417        C422   1.261       .  A
O418        C420   1.277       .  A
C419        O421   1.290       .  A
C419        C536   1.488       .  S
C420       O1656   1.253       .  A
C422        C466   1.490       .  S
Fe423       O439   2.031       .  S
Fe423       O429   2.124       .  S
Fe423       O436   2.142       .  S
Fe423       O428   2.034       .  S
Fe423       O434   1.913       .  S
Fe424       O427   2.021       .  S
Fe424       O431   2.133       .  S
Fe424       O435   2.018       .  S
Fe424       O440   2.133       .  S
Fe424       O434   1.927       .  S
Fe425       O443   2.160       .  S
Fe425       O430   2.019       .  S
Fe425       O437   2.025       .  S
Fe425      O1674   2.101       .  S
Fe425       O434   1.909       .  S
O426      Fe1673   2.101       .  S
O426        C433   1.278       .  A
O427        C441   1.268       .  A
O428       C1681   1.263       .  A
O429        C432   1.287       .  A
O430        C442   1.249       .  A
O431        C444   1.281       .  A
C432        O437   1.268       .  A
C432        C456   1.474       .  S
C433       O1676   1.263       .  A
C433        C529   1.473   1_655  S
O435        C438   1.262       .  A
O436        C438   1.287       .  A
C438        C479   1.486       .  S
O439        C444   1.263       .  A
O440        C442   1.275       .  A
C441        O443   1.290       .  A
C441        C569   1.486       .  S
C442        C446   1.480       .  S
C444        C506   1.492       .  S
C445        C446   1.418       .  A
C445       C1698   1.394       .  A
C445       F1700   1.359       .  S
C446        C447   1.402       .  A
C447        C448   1.401       .  A
C447        F454   1.358       .  S
C448        C449   1.411       .  A
C448        F453   1.358       .  S
C449       C1658   1.470       .  S
C449       C1698   1.395       .  A
C450       C1693   1.394   1_455  A
C450       C1697   1.395   1_455  A
C450        F451   1.358       .  S
F452       C1693   1.359   1_455  S
C455        C456   1.396       .  A
C455        C460   1.396       .  A
C455        F462   1.358       .  S
C456        C457   1.411       .  A
C457       C1706   1.402       .  A
C457       F1712   1.358       .  S
C458       C1705   1.402       .  A
C458        C459   1.405       .  A
C459       C1708   1.419   1_455  A
C460       C1707   1.419       .  A
C460        F461   1.358       .  S
F464       C1705   1.358       .  S
C465        C466   1.411       .  A
C465        C470   1.407       .  A
C465        F472   1.357       .  S
C466        C467   1.413       .  A
C467        C468   1.393       .  A
C467        F474   1.359       .  S
C468        C469   1.404       .  A
C468        F473   1.359       .  S
C469        C470   1.409       .  A
C470        F471   1.356       .  S
C475        C476   1.405       .  A
C475        C480   1.401       .  A
C475        F482   1.358       .  S
C476       C1013   1.467   1_545  S
C476        C477   1.396       .  A
C477        C478   1.398       .  A
C477        F484   1.358       .  S
C478        C479   1.417       .  A
C478        F483   1.358       .  S
C479        C480   1.408       .  A
C480        F481   1.358       .  S
C485        C486   1.403       .  A
C485        C490   1.404       .  A
C485        F492   1.358       .  S
C486       C1111   1.419   1_545  A
C487       C1110   1.419       .  A
C487        C488   1.398       .  A
C487        F494   1.358       .  S
C488        C489   1.397       .  A
C488        F493   1.358       .  S
C489       C1114   1.414       .  A
C490       C1113   1.414   1_545  A
C490        F491   1.358       .  S
C495        C496   1.396       .  A
C495        C500   1.395       .  A
C495        F502   1.358       .  S
C496        C990   1.474       .  S
C496       C1121   1.413       .  A
C497       C1120   1.413       .  A
C497       C1122   1.401       .  A
C497        F504   1.358       .  S
C498       C1121   1.401       .  A
C498        C499   1.402       .  A
C498        F503   1.358       .  S
C499        C500   1.417       .  A
C500        F501   1.358       .  S
C505        C506   1.412       .  A
C505        C510   1.397       .  A
C505        F512   1.358       .  S
C506        C507   1.411       .  A
C507        C508   1.406       .  A
C507        F514   1.357       .  S
C508        C509   1.407       .  A
C508        F513   1.356       .  S
C509        C510   1.406       .  A
C510        F511   1.359       .  S
C515        C516   1.395       .  A
C515        C520   1.396       .  A
C516        C517   1.406       .  A
C517        C518   1.401       .  A
C517        F524   1.358       .  S
C518        C519   1.409       .  A
C518        F523   1.358       .  S
C519        C520   1.418       .  A
C520        F521   1.358       .  S
C525        C526   1.405       .  A
C525        C530   1.402       .  A
C525        F532   1.357       .  S
C526        C527   1.421       .  A
C527        C528   1.394       .  A
C527        F534   1.359       .  S
C528        C529   1.396       .  A
C528        F533   1.359       .  S
C529        C530   1.410       .  A
C530        F531   1.358       .  S
C535        C536   1.407       .  A
C535        C540   1.394       .  A
C535        F542   1.359       .  S
C536        C537   1.411   1_556  A
C537        F544   1.357       .  S
C538        C539   1.412       .  A
C538        F543   1.358       .  S
C545        C546   1.411       .  A
C545        C550   1.410       .  A
C545        F552   1.358       .  S
C546        C547   1.412       .  A
C547        C548   1.397       .  A
C547        F554   1.358       .  S
C548        C549   1.406       .  A
C548        F553   1.359       .  S
C549        C550   1.410       .  A
C550        F551   1.357       .  S
C555        C556   1.419       .  A
C555        C560   1.396       .  A
C555        F562   1.358       .  S
C556        C557   1.408       .  A
C557        C558   1.400       .  A
C558        C559   1.406       .  A
C558        F563   1.358       .  S
C559        C560   1.395       .  A
C560        F561   1.358       .  S
C565        C566   1.413       .  A
C565        C570   1.396       .  A
C565        F572   1.358       .  S
C566        C567   1.412       .  A
C567        C568   1.410       .  A
C567        F574   1.357       .  S
C568        C569   1.409       .  A
C568        F573   1.356       .  S
C569        C570   1.406       .  A
C570        F571   1.359       .  S
C575        C576   1.409       .  A
C575        C580   1.399       .  A
C575        F582   1.358       .  S
C576        C577   1.416       .  A
C577        C578   1.397       .  A
C577        F584   1.358       .  S
C578        C579   1.396       .  A
C578        F583   1.358       .  S
C579        C580   1.405       .  A
C580        F581   1.358       .  S
C585        C586   1.396       .  A
C585        C590   1.397       .  A
C585        F592   1.358       .  S
C586        C587   1.413       .  A
C587        C588   1.403       .  A
C588        C589   1.402       .  A
C588        F593   1.358       .  S
C589        C590   1.419       .  A
C590        F591   1.358       .  S
C595        C596   1.416       .  A
C595        C600   1.394       .  A
C595        F602   1.359       .  S
C596        C597   1.400       .  A
C597        C598   1.401       .  A
C597        F604   1.357       .  S
C598        C599   1.414       .  A
C598        F603   1.358       .  S
C599        C600   1.398       .  A
C600        F601   1.358       .  S
C605        C606   1.410       .  A
C605        C610   1.410       .  A
C605        F612   1.356       .  S
C606        C607   1.406       .  A
C607        C608   1.397       .  A
C607        F614   1.359       .  S
C608        C609   1.413       .  A
C608        F613   1.359       .  S
C609        C610   1.411       .  A
C610        F611   1.357       .  S
C615        C616   1.408       .  A
C615        C620   1.404       .  A
C615        F622   1.358       .  S
C616        C617   1.396       .  A
C617        C618   1.398       .  A
C617        F624   1.358       .  S
C618        C619   1.422       .  A
C618        F623   1.358       .  S
C619        C620   1.408       .  A
C620        F621   1.357       .  S
Fe625       O641   2.029       .  S
Fe625       O631   2.116       .  S
Fe625       O638   2.131       .  S
Fe625       O630   2.037       .  S
Fe625       O636   1.916       .  S
Fe626       O629   2.025       .  S
Fe626       O633   2.146       .  S
Fe626       O637   2.023       .  S
Fe626       O642   2.143       .  S
Fe626       O636   1.929       .  S
Fe627       O645   2.159       .  S
Fe627       O632   2.019       .  S
Fe627       O639   2.026       .  S
Fe627       O628   2.114       .  S
Fe627       O636   1.908       .  S
O628        C635   1.280       .  A
O629        C643   1.268       .  A
O630        C635   1.265       .  A
O631        C634   1.284       .  A
O632        C644   1.251       .  A
O633        C646   1.283       .  A
C634        O639   1.267       .  A
C634        C911   1.476       .  S
C635        C928   1.475       .  S
O637        C640   1.263       .  A
O638        C640   1.284       .  A
C640        C888   1.484       .  S
O641        C646   1.263       .  A
O642        C644   1.277       .  A
C643        O645   1.290       .  A
C643        C918   1.488       .  S
C644        C901   1.486       .  S
C646        C878   1.496       .  S
Fe647       O663   2.022       .  S
Fe647       O653   2.133       .  S
Fe647       O660   2.146       .  S
Fe647       O652   2.023       .  S
Fe647       O658   1.915       .  S
Fe648       O651   2.015       .  S
Fe648       O655   2.154       .  S
Fe648       O659   2.016       .  S
Fe648       O664   2.134       .  S
Fe648       O658   1.915       .  S
Fe649       O667   2.166       .  S
Fe649       O654   2.017       .  S
Fe649       O661   2.024       .  S
Fe649       O650   2.118       .  S
Fe649       O658   1.903       .  S
O650        C657   1.281       .  A
O651        C665   1.267       .  A
O652        C657   1.262       .  A
O653        C656   1.287       .  A
O654        C666   1.251       .  A
O655        C668   1.286       .  A
C656        O661   1.267       .  A
C656       C1210   1.477   1_554  S
C657        C871   1.465       .  S
O659        C662   1.255       .  A
O660        C662   1.284       .  A
C662        C838   1.487       .  S
O663        C668   1.264       .  A
O664        C666   1.276       .  A
C665        O667   1.292       .  A
C665        C861   1.486       .  S
C666        C908   1.478       .  S
C668        C851   1.492       .  S
Fe669       O685   2.025       .  S
Fe669       O675   2.123       .  S
Fe669       O682   2.138       .  S
Fe669       O992   1.915       .  S
Fe670       O673   2.019       .  S
Fe670       O989   2.151   1_554  S
Fe670       O681   2.020       .  S
Fe670       O686   2.144       .  S
Fe670       O680   1.920   1_554  S
Fe671       O689   2.155       .  S
Fe671       O995   2.021   1_554  S
Fe671       O680   1.906   1_554  S
O672        C679   1.280       .  A
O673        C687   1.266       .  A
O674        C679   1.263   1_545  A
O675        C678   1.285       .  A
O677       Fe982   2.151       .  S
O677        C690   1.285       .  A
C678        O683   1.265       .  A
C679        C828   1.466       .  S
O680       Fe981   1.915       .  S
O681        C684   1.260       .  A
O682        C996   1.285       .  A
O683       Fe983   2.021       .  S
C684        O994   1.285   1_554  A
C684        C868   1.487       .  S
O685        C690   1.263       .  A
O686        C688   1.279       .  A
C687        O689   1.289       .  A
C687        C821   1.481       .  S
C688        C798   1.489       .  S
C690        C921   1.495       .  S
Fe691       O707   2.029       .  S
Fe691       O697   2.137       .  S
Fe691       O704   2.157       .  S
Fe691       O696   2.035       .  S
Fe691       O702   1.910       .  S
Fe692       O695   2.016       .  S
Fe692       O699   2.143       .  S
Fe692       O703   2.016       .  S
Fe692       O708   2.136       .  S
Fe692       O702   1.922       .  S
Fe693       O711   2.153       .  S
Fe693       O698   2.021       .  S
Fe693       O705   2.024       .  S
Fe693       O702   1.911       .  S
O695        C709   1.266       .  A
O696        C701   1.264       .  A
O697        C700   1.288       .  A
O698        C710   1.252       .  A
O699        C712   1.283       .  A
C700        O705   1.267       .  A
C700        C801   1.481       .  S
O703        C706   1.260       .  A
O704        C706   1.289       .  A
C706        C931   1.496       .  S
O707        C712   1.262       .  A
O708        C710   1.277       .  A
C709        O711   1.288       .  A
C709        C781   1.479       .  S
C710        C811   1.480       .  S
C712        C858   1.494       .  S
Fe713       O729   2.020       .  S
Fe713       O719   2.116       .  S
Fe713       O726   2.137       .  S
Fe713      O1966   2.022       .  S
Fe713       O724   1.913       .  S
Fe714       O717   2.019       .  S
Fe714       O721   2.142       .  S
Fe714       O725   2.020       .  S
Fe714       O730   2.133       .  S
Fe714       O724   1.919       .  S
Fe715       O733   2.160       .  S
Fe715      O1968   2.021       .  S
Fe715       O727   2.026       .  S
Fe715      O1964   2.117   1_455  S
Fe715       O724   1.907       .  S
O716      Fe1963   2.117       .  S
O716        C723   1.281       .  A
O717        C731   1.267       .  A
O718      Fe1961   2.022       .  S
O718        C723   1.262       .  A
O719        C722   1.282       .  A
O720      Fe1963   2.021       .  S
O720       C1980   1.253       .  A
O721        C734   1.282       .  A
C722        O727   1.266       .  A
C722       C2009   1.470   1_455  S
C723        C891   1.463       .  S
O725        C728   1.262       .  A
O726        C728   1.284       .  A
C728        C831   1.487       .  S
O729        C734   1.261       .  A
O730        C732   1.277       .  A
C731        O733   1.290       .  A
C731        C848   1.488       .  S
C732       O1968   1.253       .  A
C732       C1083   1.487       .  S
C734        C778   1.490       .  S
Fe735       O751   2.031       .  S
Fe735       O741   2.124       .  S
Fe735       O748   2.142       .  S
Fe735       O740   2.034       .  S
Fe735       O746   1.913       .  S
Fe736       O739   2.021       .  S
Fe736       O743   2.133       .  S
Fe736       O747   2.018       .  S
Fe736       O752   2.133       .  S
Fe736       O746   1.927       .  S
Fe737       O755   2.160       .  S
Fe737       O742   2.019       .  S
Fe737       O749   2.025       .  S
Fe737      O1986   2.102       .  S
Fe737       O746   1.909       .  S
O738      Fe1985   2.102       .  S
O738        C745   1.278       .  A
O739        C753   1.268       .  A
O740       C1993   1.263       .  A
O741        C744   1.287       .  A
O742        C754   1.249       .  A
O743        C756   1.281       .  A
C744        O749   1.268       .  A
C744        C768   1.474       .  S
C745       O1988   1.263       .  A
C745        C841   1.473   1_655  S
O747        C750   1.262       .  A
O748        C750   1.287       .  A
C750        C791   1.486       .  S
O751        C756   1.263       .  A
O752        C754   1.275       .  A
C753        O755   1.290       .  A
C753        C881   1.486       .  S
C754        C758   1.480       .  S
C756        C818   1.492       .  S
C757        C758   1.418       .  A
C757       C2010   1.394       .  A
C757       F2012   1.359       .  S
C758        C759   1.402       .  A
C759        C760   1.401       .  A
C759        F766   1.358       .  S
C760        C761   1.411       .  A
C760        F765   1.358       .  S
C761       C1970   1.470       .  S
C761       C2010   1.395       .  A
C762       C2005   1.394   1_455  A
C762       C2009   1.395   1_455  A
C762        F763   1.358       .  S
F764       C2005   1.359   1_455  S
C767        C768   1.396       .  A
C767        C772   1.396       .  A
C767        F774   1.358       .  S
C768        C769   1.411       .  A
C769       C2018   1.402       .  A
C769       F2024   1.358       .  S
C770       C2017   1.402       .  A
C770        C771   1.405       .  A
C770       F1087   1.358       .  S
C771       C1044   1.487   1_554  S
C771       C2020   1.419   1_455  A
C772       C2019   1.419       .  A
C772        F773   1.358   1_554  S
F775       C1082   1.358       .  S
F776       C2017   1.358       .  S
C777        C778   1.411       .  A
C777        C782   1.407       .  A
C777        F784   1.357       .  S
C778        C779   1.413       .  A
C779        C780   1.393       .  A
C779        F786   1.359       .  S
C780        C781   1.404       .  A
C780        F785   1.359       .  S
C781        C782   1.409       .  A
C782        F783   1.356       .  S
C787        C788   1.405       .  A
C787        C792   1.401       .  A
C787        F794   1.358       .  S
C788        C789   1.396       .  A
C789        C790   1.398       .  A
C789        F796   1.358       .  S
C790        C791   1.417       .  A
C790        F795   1.358       .  S
C791        C792   1.408       .  A
C792        F793   1.358       .  S
C797        C798   1.403       .  A
C797        C802   1.404       .  A
C797        F804   1.358       .  S
C799        C800   1.398       .  A
C799        F806   1.358       .  S
C800        C801   1.397       .  A
C800        F805   1.358       .  S
C802        F803   1.358       .  S
C807        C808   1.396   1_545  A
C807        C812   1.395   1_545  A
C807        F814   1.358       .  S
C809        F816   1.358       .  S
C810        C811   1.402       .  A
C810        F815   1.358       .  S
C811        C812   1.417       .  A
C812        F813   1.358   1_565  S
C817        C818   1.412       .  A
C817        C822   1.397       .  A
C817        F824   1.358       .  S
C818        C819   1.411       .  A
C819        C820   1.406       .  A
C819        F826   1.357       .  S
C820        C821   1.407       .  A
C820        F825   1.356       .  S
C821        C822   1.406       .  A
C822        F823   1.359       .  S
C827        C828   1.395       .  A
C827        C832   1.396       .  A
C827       F1146   1.358       .  S
C828        C829   1.406       .  A
C829        C830   1.401       .  A
C829        F836   1.358       .  S
C830        C831   1.409       .  A
C830        F835   1.358       .  S
C831        C832   1.418       .  A
C832        F833   1.358       .  S
F834       C1139   1.358   1_554  S
C837        C838   1.405       .  A
C837        C842   1.402       .  A
C837        F844   1.357       .  S
C838        C839   1.421       .  A
C839        C840   1.394       .  A
C839        F846   1.359       .  S
C840        C841   1.396       .  A
C840        F845   1.359       .  S
C841        C842   1.410       .  A
C842        F843   1.358       .  S
C847        C848   1.407       .  A
C847        C852   1.394       .  A
C847        F854   1.359       .  S
C848        C849   1.411       .  A
C849       C1162   1.412       .  A
C849        F856   1.357       .  S
C850       C1161   1.412       .  A
C850        C851   1.412       .  A
C850        F855   1.358       .  S
C851       C1164   1.410   1_554  A
C852       C1163   1.410       .  A
C852       F1165   1.359       .  S
F853       C1164   1.359       .  S
C857        C858   1.411       .  A
C857        C862   1.410       .  A
C857        F864   1.358       .  S
C858        C859   1.412       .  A
C859        C860   1.396       .  A
C859        F866   1.358       .  S
C860        C861   1.406       .  A
C860        F865   1.359       .  S
C861        C862   1.410       .  A
C862        F863   1.357       .  S
C867        C868   1.419       .  A
C867        C872   1.396       .  A
C867        F874   1.358       .  S
C868        C869   1.408   1_554  A
C869        C870   1.400   1_556  A
C869       F1188   1.358       .  S
C870        C871   1.406       .  A
C870        F875   1.358   1_554  S
C871        C872   1.395       .  A
C872        F873   1.358       .  S
F876       C1181   1.358       .  S
C877        C878   1.413       .  A
C877        C882   1.396       .  A
C877        F884   1.358       .  S
C878        C879   1.412       .  A
C879        C880   1.409       .  A
C879        F886   1.357       .  S
C880        C881   1.409       .  A
C880        F885   1.356       .  S
C881        C882   1.406       .  A
C882        F883   1.359       .  S
C887        C888   1.409       .  A
C887        C892   1.399       .  A
C887        F894   1.358       .  S
C888        C889   1.416       .  A
C889        C890   1.397       .  A
C889        F896   1.358       .  S
C890        C891   1.396       .  A
C890        F895   1.358       .  S
C891        C892   1.405       .  A
C892        F893   1.359       .  S
C897        C898   1.396       .  A
C897        C902   1.397       .  A
C897        F904   1.358       .  S
C898        C968   1.477       .  S
C898        C899   1.413       .  A
C899        C900   1.403       .  A
C899       F1218   1.358       .  S
C900        C901   1.402       .  A
C900        F905   1.358       .  S
C901        C902   1.419       .  A
C902        F903   1.358       .  S
F906       C1211   1.358   1_554  S
C907        C908   1.416       .  A
C907        C912   1.394       .  A
C907        F914   1.359       .  S
C908        C909   1.400       .  A
C909        C910   1.401       .  A
C909        F916   1.357       .  S
C910        C911   1.414       .  A
C910        F915   1.358       .  S
C911        C912   1.398       .  A
C912        F913   1.358       .  S
C917        C918   1.410       .  A
C917        C922   1.410       .  A
C917        F924   1.356       .  S
C918        C919   1.406       .  A
C919        C920   1.397       .  A
C919        F926   1.359       .  S
C920        C921   1.413       .  A
C920        F925   1.359       .  S
C921        C922   1.411       .  A
C922        F923   1.357       .  S
C927        C928   1.408       .  A
C927        C932   1.404       .  A
C927        F934   1.358       .  S
C928        C929   1.396       .  A
C929        C930   1.398       .  A
C929        F936   1.358       .  S
C930        C931   1.422       .  A
C930        F935   1.358       .  S
C931        C932   1.408       .  A
C932        F933   1.357       .  S
Fe937       O953   2.029       .  S
Fe937       O943   2.116       .  S
Fe937       O950   2.131       .  S
Fe937       O942   2.037       .  S
Fe937       O948   1.916       .  S
Fe938       O941   2.025       .  S
Fe938       O945   2.146       .  S
Fe938       O949   2.023       .  S
Fe938       O954   2.143       .  S
Fe938       O948   1.929       .  S
Fe939       O957   2.159       .  S
Fe939       O944   2.019       .  S
Fe939       O951   2.026       .  S
Fe939       O940   2.114       .  S
Fe939       O948   1.908       .  S
O940        C947   1.280       .  A
O941        C955   1.268       .  A
O942        C947   1.265       .  A
O943        C946   1.284       .  A
O944        C956   1.251       .  A
O945        C958   1.283       .  A
C946        O951   1.267       .  A
C946       C1223   1.476       .  S
C947       C1240   1.475       .  S
O949        C952   1.263       .  A
O950        C952   1.284       .  A
C952       C1200   1.484       .  S
O953        C958   1.263       .  A
O954        C956   1.277       .  A
C955        O957   1.290       .  A
C955       C1230   1.488       .  S
C956       C1213   1.486       .  S
C958       C1190   1.496       .  S
Fe959       O975   2.022       .  S
Fe959       O965   2.133       .  S
Fe959       O972   2.146       .  S
Fe959       O964   2.023       .  S
Fe959       O970   1.915       .  S
Fe960       O963   2.015       .  S
Fe960       O967   2.154       .  S
Fe960       O971   2.016       .  S
Fe960       O976   2.134       .  S
Fe960       O970   1.915       .  S
Fe961       O979   2.166       .  S
Fe961       O966   2.017       .  S
Fe961       O973   2.024       .  S
Fe961       O962   2.118       .  S
Fe961       O970   1.903       .  S
O962        C969   1.281       .  A
O963        C977   1.267       .  A
O964        C969   1.262       .  A
O965        C968   1.287       .  A
O966        C978   1.251       .  A
O967        C980   1.286       .  A
C968        O973   1.267       .  A
C969       C1183   1.465       .  S
O971        C974   1.255       .  A
O972        C974   1.284       .  A
C974       C1150   1.487       .  S
O975        C980   1.264       .  A
O976        C978   1.276       .  A
C977        O979   1.292       .  A
C977       C1173   1.486       .  S
C978       C1220   1.478       .  S
C980       C1163   1.492       .  S
Fe981       O997   2.025       .  S
Fe981       O987   2.123       .  S
Fe981       O994   2.138       .  S
Fe982       O985   2.019       .  S
Fe982       O993   2.020       .  S
Fe982       O998   2.144       .  S
Fe982       O992   1.920       .  S
Fe983      O1001   2.155       .  S
Fe983       O992   1.906       .  S
O984        C991   1.280       .  A
O985        C999   1.266       .  A
O986        C991   1.263   1_545  A
O987        C990   1.285       .  A
O989       C1002   1.285       .  A
C990        O995   1.265       .  A
C991       C1140   1.466       .  S
O993        C996   1.260       .  A
C996       C1180   1.487       .  S
O997       C1002   1.263       .  A
O998       C1000   1.279       .  A
C999       O1001   1.289       .  A
C999       C1133   1.481       .  S
C1000      C1110   1.489       .  S
C1002      C1233   1.495       .  S
Fe1003     O1019   2.029       .  S
Fe1003     O1009   2.137       .  S
Fe1003     O1016   2.157       .  S
Fe1003     O1008   2.035       .  S
Fe1003     O1014   1.910       .  S
Fe1004     O1007   2.016       .  S
Fe1004     O1011   2.143       .  S
Fe1004     O1015   2.016       .  S
Fe1004     O1020   2.136       .  S
Fe1004     O1014   1.922       .  S
Fe1005     O1023   2.153       .  S
Fe1005     O1010   2.021       .  S
Fe1005     O1017   2.024       .  S
Fe1005     O1014   1.911       .  S
O1007      C1021   1.266       .  A
O1008      C1013   1.264       .  A
O1009      C1012   1.288       .  A
O1010      C1022   1.252       .  A
O1011      C1024   1.283       .  A
C1012      O1017   1.267       .  A
C1012      C1113   1.481       .  S
O1015      C1018   1.260       .  A
O1016      C1018   1.289       .  A
C1018      C1243   1.496       .  S
O1019      C1024   1.262       .  A
O1020      C1022   1.277       .  A
C1021      O1023   1.288       .  A
C1021      C1093   1.479       .  S
C1022      C1123   1.480       .  S
C1024      C1170   1.494       .  S
Fe1025     O1041   2.020       .  S
Fe1025     O1031   2.116       .  S
Fe1025     O1038   2.137       .  S
Fe1025     O2278   2.022       .  S
Fe1025     O1036   1.913       .  S
Fe1026     O1029   2.019       .  S
Fe1026     O1033   2.142       .  S
Fe1026     O1037   2.020       .  S
Fe1026     O1042   2.133       .  S
Fe1026     O1036   1.919       .  S
Fe1027     O1045   2.161       .  S
Fe1027     O2280   2.021       .  S
Fe1027     O1039   2.026       .  S
Fe1027     O2276   2.117   1_455  S
Fe1027     O1036   1.907       .  S
O1028     Fe2275   2.117       .  S
O1028      C1035   1.281       .  A
O1029      C1043   1.267       .  A
O1030     Fe2273   2.022       .  S
O1030      C1035   1.262       .  A
O1031      C1034   1.282       .  A
O1032     Fe2275   2.021       .  S
O1032      C2292   1.253       .  A
O1033      C1046   1.282       .  A
C1034      O1039   1.266       .  A
C1034      C2321   1.470   1_455  S
C1035      C1203   1.463       .  S
O1037      C1040   1.262       .  A
O1038      C1040   1.284       .  A
C1040      C1143   1.487       .  S
O1041      C1046   1.261       .  A
O1042      C1044   1.277       .  A
C1043      O1045   1.290       .  A
C1043      C1160   1.488       .  S
C1044      O2280   1.253       .  A
C1046      C1090   1.490       .  S
Fe1047     O1063   2.031       .  S
Fe1047     O1053   2.124       .  S
Fe1047     O1060   2.142       .  S
Fe1047     O1052   2.034       .  S
Fe1047     O1058   1.913       .  S
Fe1048     O1051   2.021       .  S
Fe1048     O1055   2.133       .  S
Fe1048     O1059   2.018       .  S
Fe1048     O1064   2.133       .  S
Fe1048     O1058   1.927       .  S
Fe1049     O1067   2.160       .  S
Fe1049     O1054   2.019       .  S
Fe1049     O1061   2.025       .  S
Fe1049     O2298   2.102       .  S
Fe1049     O1058   1.909       .  S
O1050     Fe2297   2.102       .  S
O1050      C1057   1.278       .  A
O1051      C1065   1.268       .  A
O1052      C2305   1.263       .  A
O1053      C1056   1.287       .  A
O1054      C1066   1.249       .  A
O1055      C1068   1.281       .  A
C1056      O1061   1.268       .  A
C1056      C1080   1.474       .  S
C1057      O2300   1.263       .  A
C1057      C1153   1.473   1_655  S
O1059      C1062   1.262       .  A
O1060      C1062   1.287       .  A
C1062      C1103   1.486       .  S
O1063      C1068   1.263       .  A
O1064      C1066   1.275       .  A
C1065      O1067   1.290       .  A
C1065      C1193   1.486       .  S
C1066      C1070   1.480       .  S
C1068      C1130   1.492       .  S
C1069      C1070   1.418       .  A
C1069      C2322   1.394       .  A
C1069      F2324   1.359       .  S
C1070      C1071   1.402       .  A
C1071      C1072   1.401       .  A
C1071      F1078   1.358       .  S
C1072      C1073   1.411       .  A
C1072      F1077   1.358       .  S
C1073      C2282   1.470       .  S
C1073      C2322   1.395       .  A
C1074      C2317   1.394   1_455  A
C1074      C2321   1.395   1_455  A
C1074      F1075   1.358       .  S
F1076      C2317   1.359   1_455  S
C1079      C1080   1.396       .  A
C1079      C1084   1.396       .  A
C1079      F1086   1.358       .  S
C1080      C1081   1.411       .  A
C1081      C2330   1.402       .  A
C1081      F2336   1.358       .  S
C1082      C2329   1.402       .  A
C1082      C1083   1.405       .  A
C1083      C2332   1.419   1_455  A
C1084      C2331   1.419       .  A
C1084      F1085   1.358       .  S
F1088      C2329   1.358       .  S
C1089      C1090   1.411       .  A
C1089      C1094   1.407       .  A
C1089      F1096   1.357       .  S
C1090      C1091   1.413       .  A
C1091      C1092   1.393       .  A
C1091      F1098   1.359       .  S
C1092      C1093   1.404       .  A
C1092      F1097   1.359       .  S
C1093      C1094   1.409       .  A
C1094      F1095   1.356       .  S
C1099      C1100   1.405       .  A
C1099      C1104   1.401       .  A
C1099      F1106   1.358       .  S
C1100      C1101   1.396       .  A
C1101      C1102   1.398       .  A
C1101      F1108   1.358       .  S
C1102      C1103   1.417       .  A
C1102      F1107   1.358       .  S
C1103      C1104   1.408       .  A
C1104      F1105   1.358       .  S
C1109      C1110   1.403       .  A
C1109      C1114   1.404       .  A
C1109      F1116   1.358       .  S
C1111      C1112   1.398       .  A
C1111      F1118   1.358       .  S
C1112      C1113   1.397       .  A
C1112      F1117   1.358       .  S
C1114      F1115   1.358       .  S
C1119      C1120   1.396   1_545  A
C1119      C1124   1.395   1_545  A
C1119      F1126   1.358       .  S
C1121      F1128   1.358       .  S
C1122      C1123   1.402       .  A
C1122      F1127   1.358       .  S
C1123      C1124   1.417       .  A
C1124      F1125   1.358   1_565  S
C1129      C1130   1.412       .  A
C1129      C1134   1.397       .  A
C1129      F1136   1.358       .  S
C1130      C1131   1.411       .  A
C1131      C1132   1.406       .  A
C1131      F1138   1.357       .  S
C1132      C1133   1.407       .  A
C1132      F1137   1.356       .  S
C1133      C1134   1.406       .  A
C1134      F1135   1.359       .  S
C1139      C1140   1.395       .  A
C1139      C1144   1.396       .  A
C1140      C1141   1.406       .  A
C1141      C1142   1.401       .  A
C1141      F1148   1.358       .  S
C1142      C1143   1.409       .  A
C1142      F1147   1.358       .  S
C1143      C1144   1.418       .  A
C1144      F1145   1.358       .  S
C1149      C1150   1.405       .  A
C1149      C1154   1.402       .  A
C1149      F1156   1.357       .  S
C1150      C1151   1.421       .  A
C1151      C1152   1.394       .  A
C1151      F1158   1.359       .  S
C1152      C1153   1.396       .  A
C1152      F1157   1.359       .  S
C1153      C1154   1.410       .  A
C1154      F1155   1.358       .  S
C1159      C1160   1.407       .  A
C1159      C1164   1.394       .  A
C1159      F1166   1.359       .  S
C1160      C1161   1.411   1_556  A
C1161      F1168   1.357       .  S
C1162      C1163   1.412       .  A
C1162      F1167   1.358       .  S
C1169      C1170   1.411       .  A
C1169      C1174   1.410       .  A
C1169      F1176   1.358       .  S
C1170      C1171   1.412       .  A
C1171      C1172   1.396       .  A
C1171      F1178   1.358       .  S
C1172      C1173   1.406       .  A
C1172      F1177   1.359       .  S
C1173      C1174   1.410       .  A
C1174      F1175   1.357       .  S
C1179      C1180   1.419       .  A
C1179      C1184   1.396       .  A
C1179      F1186   1.358       .  S
C1180      C1181   1.408       .  A
C1181      C1182   1.400       .  A
C1182      C1183   1.406       .  A
C1182      F1187   1.358       .  S
C1183      C1184   1.395       .  A
C1184      F1185   1.358       .  S
C1189      C1190   1.413       .  A
C1189      C1194   1.396       .  A
C1189      F1196   1.358       .  S
C1190      C1191   1.412       .  A
C1191      C1192   1.410       .  A
C1191      F1198   1.357       .  S
C1192      C1193   1.409       .  A
C1192      F1197   1.356       .  S
C1193      C1194   1.406       .  A
C1194      F1195   1.359       .  S
C1199      C1200   1.409       .  A
C1199      C1204   1.399       .  A
C1199      F1206   1.358       .  S
C1200      C1201   1.416       .  A
C1201      C1202   1.397       .  A
C1201      F1208   1.358       .  S
C1202      C1203   1.396       .  A
C1202      F1207   1.358       .  S
C1203      C1204   1.405       .  A
C1204      F1205   1.359       .  S
C1209      C1210   1.396       .  A
C1209      C1214   1.397       .  A
C1209      F1216   1.358       .  S
C1210      C1211   1.413       .  A
C1211      C1212   1.403       .  A
C1212      C1213   1.402       .  A
C1212      F1217   1.358       .  S
C1213      C1214   1.419       .  A
C1214      F1215   1.358       .  S
C1219      C1220   1.416       .  A
C1219      C1224   1.394       .  A
C1219      F1226   1.359       .  S
C1220      C1221   1.400       .  A
C1221      C1222   1.401       .  A
C1221      F1228   1.357       .  S
C1222      C1223   1.414       .  A
C1222      F1227   1.358       .  S
C1223      C1224   1.398       .  A
C1224      F1225   1.358       .  S
C1229      C1230   1.410       .  A
C1229      C1234   1.410       .  A
C1229      F1236   1.356       .  S
C1230      C1231   1.406       .  A
C1231      C1232   1.397       .  A
C1231      F1238   1.359       .  S
C1232      C1233   1.413       .  A
C1232      F1237   1.359       .  S
C1233      C1234   1.411       .  A
C1234      F1235   1.357       .  S
C1239      C1240   1.408       .  A
C1239      C1244   1.404       .  A
C1239      F1246   1.358       .  S
C1240      C1241   1.396       .  A
C1241      C1242   1.398       .  A
C1241      F1248   1.358       .  S
C1242      C1243   1.422       .  A
C1242      F1247   1.358       .  S
C1243      C1244   1.408       .  A
C1244      F1245   1.357       .  S
Fe1249     O1265   2.029       .  S
Fe1249     O1255   2.116       .  S
Fe1249     O1262   2.131       .  S
Fe1249     O1254   2.037       .  S
Fe1249     O1260   1.916       .  S
Fe1250     O1253   2.025       .  S
Fe1250     O1257   2.146       .  S
Fe1250     O1261   2.023       .  S
Fe1250     O1266   2.143       .  S
Fe1250     O1260   1.929       .  S
Fe1251     O1269   2.159       .  S
Fe1251     O1256   2.019       .  S
Fe1251     O1263   2.026       .  S
Fe1251     O1252   2.114       .  S
Fe1251     O1260   1.908       .  S
O1252      C1259   1.280       .  A
O1253      C1267   1.268       .  A
O1254      C1259   1.265       .  A
O1255      C1258   1.284       .  A
O1256      C1268   1.251       .  A
O1257      C1270   1.283       .  A
C1258      O1263   1.267       .  A
C1258      C1535   1.476       .  S
C1259      C1552   1.475       .  S
O1261      C1264   1.263       .  A
O1262      C1264   1.284       .  A
C1264      C1512   1.484       .  S
O1265      C1270   1.263       .  A
O1266      C1268   1.277       .  A
C1267      O1269   1.290       .  A
C1267      C1542   1.487       .  S
C1268      C1525   1.486       .  S
C1270      C1502   1.496       .  S
Fe1271     O1287   2.022       .  S
Fe1271     O1277   2.133       .  S
Fe1271     O1284   2.146       .  S
Fe1271     O1276   2.023       .  S
Fe1271     O1282   1.915       .  S
Fe1272     O1275   2.015       .  S
Fe1272     O1279   2.154       .  S
Fe1272     O1283   2.016       .  S
Fe1272     O1288   2.134       .  S
Fe1272     O1282   1.915       .  S
Fe1273     O1291   2.166       .  S
Fe1273     O1278   2.017       .  S
Fe1273     O1285   2.024       .  S
Fe1273     O1274   2.118       .  S
Fe1273     O1282   1.903       .  S
O1274      C1281   1.281       .  A
O1275      C1289   1.267       .  A
O1276      C1281   1.262       .  A
O1277      C1280   1.287       .  A
O1278      C1290   1.251       .  A
O1279      C1292   1.286       .  A
C1280      O1285   1.267       .  A
C1280      C1834   1.477   1_554  S
C1281      C1495   1.465       .  S
O1283      C1286   1.255       .  A
O1284      C1286   1.284       .  A
C1286      C1462   1.487       .  S
O1287      C1292   1.264       .  A
O1288      C1290   1.276       .  A
C1289      O1291   1.292       .  A
C1289      C1485   1.486       .  S
C1290      C1532   1.478       .  S
C1292      C1475   1.492       .  S
Fe1293     O1309   2.025       .  S
Fe1293     O1299   2.123       .  S
Fe1293     O1306   2.138       .  S
Fe1293     O1922   2.028       .  S
Fe1293     O1616   1.915       .  S
Fe1294     O1297   2.019       .  S
Fe1294     O1613   2.151   1_554  S
Fe1294     O1305   2.020       .  S
Fe1294     O1310   2.144       .  S
Fe1294     O1304   1.920   1_554  S
Fe1295     O1313   2.155       .  S
Fe1295     O1924   2.021       .  S
Fe1295     O1619   2.021   1_554  S
Fe1295     O2232   2.113   1_544  S
Fe1295     O1304   1.906   1_554  S
O1296     Fe2231   2.113       .  S
O1296      C1303   1.280       .  A
O1297      C1311   1.266       .  A
O1298     Fe1917   2.028       .  S
O1298      C1303   1.263       .  A
O1299      C1302   1.285       .  A
O1300     Fe1919   2.021       .  S
O1300      C1936   1.252       .  A
O1301     Fe1606   2.151       .  S
O1301      C1314   1.285       .  A
C1302      O1307   1.265       .  A
C1302      C2056   1.474   1_545  S
C1303      C1452   1.466       .  S
O1304     Fe1605   1.915       .  S
O1305      C1308   1.260       .  A
O1306      C1620   1.285       .  A
O1307     Fe1607   2.021       .  S
C1308      O1618   1.285   1_554  A
C1308      C1492   1.487       .  S
O1309      C1314   1.263       .  A
O1310      C1312   1.279       .  A
C1311      O1313   1.289       .  A
C1311      C1445   1.481       .  S
C1312      O1924   1.252       .  A
C1312      C1422   1.489       .  S
C1314      C1545   1.495       .  S
Fe1315     O1331   2.029       .  S
Fe1315     O1321   2.137       .  S
Fe1315     O1328   2.157       .  S
Fe1315     O1320   2.035       .  S
Fe1315     O1326   1.910       .  S
Fe1316     O1319   2.016       .  S
Fe1316     O1323   2.143       .  S
Fe1316     O1327   2.016       .  S
Fe1316     O1332   2.136       .  S
Fe1316     O1326   1.922       .  S
Fe1317     O1335   2.153       .  S
Fe1317     O1322   2.021       .  S
Fe1317     O1329   2.024       .  S
Fe1317     O1942   2.109       .  S
Fe1317     O1326   1.911       .  S
O1318     Fe1941   2.109       .  S
O1318      C1949   1.278       .  A
O1319      C1333   1.266       .  A
O1320      C1325   1.264       .  A
O1321      C1324   1.288       .  A
O1322      C1334   1.252       .  A
O1323      C1336   1.283       .  A
C1324      O1329   1.267       .  A
C1324      C1425   1.481       .  S
C1325      O1942   1.278       .  A
C1325      C2036   1.467       .  S
O1327      C1330   1.260       .  A
O1328      C1330   1.289       .  A
C1330      C1555   1.496       .  S
O1331      C1336   1.262       .  A
O1332      C1334   1.277       .  A
C1333      O1335   1.288       .  A
C1333      C1405   1.479       .  S
C1334      C1435   1.480       .  S
C1336      C1482   1.494       .  S
Fe1337     O1353   2.020       .  S
Fe1337     O1343   2.116       .  S
Fe1337     O1350   2.137       .  S
Fe1337     O1348   1.913       .  S
Fe1338     O1341   2.019       .  S
Fe1338     O1345   2.142       .  S
Fe1338     O1349   2.020       .  S
Fe1338     O1354   2.133       .  S
Fe1338     O1348   1.919       .  S
Fe1339     O1357   2.160       .  S
Fe1339     O1351   2.026       .  S
Fe1339     O1348   1.907       .  S
O1340      C1347   1.281       .  A
O1341      C1355   1.267       .  A
O1342      C1347   1.262   1_455  A
O1343      C1346   1.282       .  A
O1345      C1358   1.282       .  A
C1346      O1351   1.266       .  A
C1347      C1515   1.463       .  S
O1349      C1352   1.262       .  A
O1350      C1352   1.284       .  A
C1352      C1455   1.487       .  S
O1353      C1358   1.261       .  A
O1354      C1356   1.277       .  A
C1355      O1357   1.290       .  A
C1355      C1472   1.488       .  S
C1356      C1707   1.487       .  S
C1358      C1402   1.490       .  S
Fe1359     O1375   2.031       .  S
Fe1359     O1365   2.124       .  S
Fe1359     O1372   2.142       .  S
Fe1359     O1364   2.034       .  S
Fe1359     O1370   1.913       .  S
Fe1360     O1363   2.021       .  S
Fe1360     O1367   2.133       .  S
Fe1360     O1371   2.018       .  S
Fe1360     O1376   2.133       .  S
Fe1360     O1370   1.927       .  S
Fe1361     O1379   2.160       .  S
Fe1361     O1366   2.019       .  S
Fe1361     O1373   2.025       .  S
Fe1361     O1370   1.909       .  S
O1362      C1369   1.278       .  A
O1363      C1377   1.268       .  A
O1365      C1368   1.287       .  A
O1366      C1378   1.249       .  A
O1367      C1380   1.281       .  A
C1368      O1373   1.268       .  A
C1368      C1392   1.474       .  S
C1369      C1465   1.473       .  S
O1371      C1374   1.262       .  A
O1372      C1374   1.287       .  A
C1374      C1415   1.486       .  S
O1375      C1380   1.263       .  A
O1376      C1378   1.275       .  A
C1377      O1379   1.290       .  A
C1377      C1505   1.486       .  S
C1378      C1382   1.480       .  S
C1380      C1442   1.492       .  S
C1381      C1382   1.418       .  A
C1382      C1383   1.402       .  A
C1383      C1384   1.401       .  A
C1383      F1390   1.358       .  S
C1384      C1385   1.411       .  A
C1384      F1389   1.358       .  S
C1386      F1387   1.358       .  S
C1391      C1392   1.396       .  A
C1391      C1396   1.396       .  A
C1391      F1398   1.358       .  S
C1392      C1393   1.411   1_655  A
C1394      C1395   1.405       .  A
C1394      F1711   1.358       .  S
C1395      C1668   1.487   1_554  S
C1396      F1397   1.358   1_554  S
F1399      C1706   1.358       .  S
C1401      C1402   1.411       .  A
C1401      C1406   1.407       .  A
C1401      F1408   1.357       .  S
C1402      C1403   1.413       .  A
C1403      C1404   1.393       .  A
C1403      F1410   1.359       .  S
C1404      C1405   1.404       .  A
C1404      F1409   1.359       .  S
C1405      C1406   1.409       .  A
C1406      F1407   1.356       .  S
C1411      C1412   1.405       .  A
C1411      C1416   1.401       .  A
C1411      F1418   1.358       .  S
C1412      C1949   1.467   1_545  S
C1412      C1413   1.396       .  A
C1413      C1414   1.398       .  A
C1413      F1420   1.358       .  S
C1414      C1415   1.417       .  A
C1414      F1419   1.358       .  S
C1415      C1416   1.408       .  A
C1416      F1417   1.358       .  S
C1421      C1422   1.403       .  A
C1421      C1426   1.404       .  A
C1421      F1428   1.358       .  S
C1422      C2047   1.419   1_545  A
C1423      C2046   1.419       .  A
C1423      C1424   1.398       .  A
C1423      F1430   1.358       .  S
C1424      C1425   1.397       .  A
C1424      F1429   1.358       .  S
C1425      C2050   1.414       .  A
C1426      C2049   1.414   1_545  A
C1426      F1427   1.358       .  S
C1431      C1432   1.396       .  A
C1431      C1436   1.395       .  A
C1431      F1438   1.358       .  S
C1432      C1926   1.474       .  S
C1432      C2057   1.413       .  A
C1433      C2056   1.413       .  A
C1433      C2058   1.401       .  A
C1433      F1440   1.358       .  S
C1434      C2057   1.401       .  A
C1434      C1435   1.402       .  A
C1434      F1439   1.358       .  S
C1435      C1436   1.417       .  A
C1436      F1437   1.358       .  S
C1441      C1442   1.412       .  A
C1441      C1446   1.397       .  A
C1441      F1448   1.358       .  S
C1442      C1443   1.411       .  A
C1443      C1444   1.406       .  A
C1443      F1450   1.357       .  S
C1444      C1445   1.407       .  A
C1444      F1449   1.356       .  S
C1445      C1446   1.406       .  A
C1446      F1447   1.359       .  S
C1451      C1452   1.395       .  A
C1451      C1456   1.396       .  A
C1451      F1770   1.358       .  S
C1452      C1453   1.406       .  A
C1453      C1454   1.401       .  A
C1453      F1460   1.358       .  S
C1454      C1455   1.409       .  A
C1454      F1459   1.358       .  S
C1455      C1456   1.418       .  A
C1456      F1457   1.358       .  S
F1458      C1763   1.358   1_554  S
C1461      C1462   1.405       .  A
C1461      C1466   1.402       .  A
C1461      F1468   1.357       .  S
C1462      C1463   1.421       .  A
C1463      C1464   1.394       .  A
C1463      F1470   1.359       .  S
C1464      C1465   1.396       .  A
C1464      F1469   1.359       .  S
C1465      C1466   1.410       .  A
C1466      F1467   1.358       .  S
C1471      C1472   1.407       .  A
C1471      C1476   1.394       .  A
C1471      F1478   1.359       .  S
C1472      C1473   1.411       .  A
C1473      C1786   1.412       .  A
C1473      F1480   1.357       .  S
C1474      C1785   1.412       .  A
C1474      C1475   1.412       .  A
C1474      F1479   1.358       .  S
C1475      C1788   1.410   1_554  A
C1476      C1787   1.410       .  A
C1476      F1789   1.359       .  S
F1477      C1788   1.359       .  S
C1481      C1482   1.411       .  A
C1481      C1486   1.410       .  A
C1481      F1488   1.358       .  S
C1482      C1483   1.412       .  A
C1483      C1484   1.397       .  A
C1483      F1490   1.358       .  S
C1484      C1485   1.406       .  A
C1484      F1489   1.359       .  S
C1485      C1486   1.410       .  A
C1486      F1487   1.357       .  S
C1491      C1492   1.419       .  A
C1491      C1496   1.396       .  A
C1491      F1498   1.358       .  S
C1492      C1493   1.408   1_554  A
C1493      C1494   1.400   1_556  A
C1493      F1812   1.358       .  S
C1494      C1495   1.406       .  A
C1494      F1499   1.358   1_554  S
C1495      C1496   1.395       .  A
C1496      F1497   1.358       .  S
F1500      C1805   1.358       .  S
C1501      C1502   1.413       .  A
C1501      C1506   1.396       .  A
C1501      F1508   1.358       .  S
C1502      C1503   1.412       .  A
C1503      C1504   1.410       .  A
C1503      F1510   1.357       .  S
C1504      C1505   1.409       .  A
C1504      F1509   1.356       .  S
C1505      C1506   1.406       .  A
C1506      F1507   1.359       .  S
C1511      C1512   1.409       .  A
C1511      C1516   1.399       .  A
C1511      F1518   1.358       .  S
C1512      C1513   1.416       .  A
C1513      C1514   1.397       .  A
C1513      F1520   1.358       .  S
C1514      C1515   1.396       .  A
C1514      F1519   1.358       .  S
C1515      C1516   1.405       .  A
C1516      F1517   1.358       .  S
C1521      C1522   1.396       .  A
C1521      C1526   1.397       .  A
C1521      F1528   1.358       .  S
C1522      C1592   1.477       .  S
C1522      C1523   1.413       .  A
C1523      C1524   1.403       .  A
C1523      F1842   1.358       .  S
C1524      C1525   1.402       .  A
C1524      F1529   1.358       .  S
C1525      C1526   1.419       .  A
C1526      F1527   1.358       .  S
F1530      C1835   1.358   1_554  S
C1531      C1532   1.416       .  A
C1531      C1536   1.394       .  A
C1531      F1538   1.359       .  S
C1532      C1533   1.400       .  A
C1533      C1534   1.401       .  A
C1533      F1540   1.357       .  S
C1534      C1535   1.414       .  A
C1534      F1539   1.358       .  S
C1535      C1536   1.398       .  A
C1536      F1537   1.358       .  S
C1541      C1542   1.410       .  A
C1541      C1546   1.410       .  A
C1541      F1548   1.356       .  S
C1542      C1543   1.406       .  A
C1543      C1544   1.397       .  A
C1543      F1550   1.359       .  S
C1544      C1545   1.413       .  A
C1544      F1549   1.359       .  S
C1545      C1546   1.411       .  A
C1546      F1547   1.357       .  S
C1551      C1552   1.408       .  A
C1551      C1556   1.404       .  A
C1551      F1558   1.358       .  S
C1552      C1553   1.396       .  A
C1553      C1554   1.398       .  A
C1553      F1560   1.358       .  S
C1554      C1555   1.422       .  A
C1554      F1559   1.358       .  S
C1555      C1556   1.408       .  A
C1556      F1557   1.357       .  S
Fe1561     O1577   2.029       .  S
Fe1561     O1567   2.116       .  S
Fe1561     O1574   2.131       .  S
Fe1561     O1566   2.037       .  S
Fe1561     O1572   1.916       .  S
Fe1562     O1565   2.025       .  S
Fe1562     O1569   2.146       .  S
Fe1562     O1573   2.023       .  S
Fe1562     O1578   2.143       .  S
Fe1562     O1572   1.929       .  S
Fe1563     O1581   2.159       .  S
Fe1563     O1568   2.019       .  S
Fe1563     O1575   2.026       .  S
Fe1563     O1564   2.114       .  S
Fe1563     O1572   1.908       .  S
O1564      C1571   1.280       .  A
O1565      C1579   1.268       .  A
O1566      C1571   1.265       .  A
O1567      C1570   1.284       .  A
O1568      C1580   1.251       .  A
O1569      C1582   1.283       .  A
C1570      O1575   1.267       .  A
C1570      C1847   1.476       .  S
C1571      C1864   1.475       .  S
O1573      C1576   1.263       .  A
O1574      C1576   1.284       .  A
C1576      C1824   1.484       .  S
O1577      C1582   1.263       .  A
O1578      C1580   1.277       .  A
C1579      O1581   1.290       .  A
C1579      C1854   1.487       .  S
C1580      C1837   1.486       .  S
C1582      C1814   1.496       .  S
Fe1583     O1599   2.022       .  S
Fe1583     O1589   2.133       .  S
Fe1583     O1596   2.146       .  S
Fe1583     O1588   2.023       .  S
Fe1583     O1594   1.915       .  S
Fe1584     O1587   2.015       .  S
Fe1584     O1591   2.154       .  S
Fe1584     O1595   2.016       .  S
Fe1584     O1600   2.134       .  S
Fe1584     O1594   1.915       .  S
Fe1585     O1603   2.166       .  S
Fe1585     O1590   2.017       .  S
Fe1585     O1597   2.024       .  S
Fe1585     O1586   2.118       .  S
Fe1585     O1594   1.903       .  S
O1586      C1593   1.281       .  A
O1587      C1601   1.267       .  A
O1588      C1593   1.262       .  A
O1589      C1592   1.287       .  A
O1590      C1602   1.251       .  A
O1591      C1604   1.286       .  A
C1592      O1597   1.267       .  A
C1593      C1807   1.465       .  S
O1595      C1598   1.255       .  A
O1596      C1598   1.284       .  A
C1598      C1774   1.487       .  S
O1599      C1604   1.264       .  A
O1600      C1602   1.276       .  A
C1601      O1603   1.292       .  A
C1601      C1797   1.486       .  S
C1602      C1844   1.478       .  S
C1604      C1787   1.492       .  S
Fe1605     O1621   2.025       .  S
Fe1605     O1611   2.123       .  S
Fe1605     O1618   2.138       .  S
Fe1605     O2234   2.028       .  S
Fe1606     O1609   2.019       .  S
Fe1606     O1617   2.020       .  S
Fe1606     O1622   2.144       .  S
Fe1606     O1616   1.920       .  S
Fe1607     O1625   2.155       .  S
Fe1607     O2236   2.021       .  S
Fe1607     O1920   2.113   1_545  S
Fe1607     O1616   1.906       .  S
O1608     Fe1919   2.113   1_556  S
O1608      C1615   1.280       .  A
O1609      C1623   1.266       .  A
O1610     Fe2229   2.028       .  S
O1610      C1615   1.263       .  A
O1611      C1614   1.285       .  A
O1612     Fe2231   2.021       .  S
O1612      C2248   1.252       .  A
O1613      C1626   1.285       .  A
C1614      O1619   1.265       .  A
C1614      C2368   1.474   1_545  S
C1615      C1764   1.466       .  S
O1617      C1620   1.260       .  A
C1620      C1804   1.487       .  S
O1621      C1626   1.263       .  A
O1622      C1624   1.279       .  A
C1623      O1625   1.289       .  A
C1623      C1757   1.481       .  S
C1624      O2236   1.252       .  A
C1624      C1734   1.489       .  S
C1626      C1857   1.495       .  S
Fe1627     O1643   2.029       .  S
Fe1627     O1633   2.137       .  S
Fe1627     O1640   2.157       .  S
Fe1627     O1632   2.035       .  S
Fe1627     O1638   1.910       .  S
Fe1628     O1631   2.016       .  S
Fe1628     O1635   2.143       .  S
Fe1628     O1639   2.016       .  S
Fe1628     O1644   2.136       .  S
Fe1628     O1638   1.922       .  S
Fe1629     O1647   2.153       .  S
Fe1629     O1634   2.021       .  S
Fe1629     O1641   2.024       .  S
Fe1629     O2254   2.109       .  S
Fe1629     O1638   1.911       .  S
O1630     Fe2253   2.109       .  S
O1630      C2261   1.278       .  A
O1631      C1645   1.266       .  A
O1632      C1637   1.264       .  A
O1633      C1636   1.288       .  A
O1634      C1646   1.252       .  A
O1635      C1648   1.283       .  A
C1636      O1641   1.267       .  A
C1636      C1737   1.481       .  S
C1637      O2254   1.278       .  A
C1637      C2348   1.467       .  S
O1639      C1642   1.260       .  A
O1640      C1642   1.289       .  A
C1642      C1867   1.496       .  S
O1643      C1648   1.262       .  A
O1644      C1646   1.277       .  A
C1645      O1647   1.288       .  A
C1645      C1717   1.479       .  S
C1646      C1747   1.480       .  S
C1648      C1794   1.494       .  S
Fe1649     O1665   2.020       .  S
Fe1649     O1655   2.116       .  S
Fe1649     O1662   2.137       .  S
Fe1649     O1660   1.913       .  S
Fe1650     O1653   2.019       .  S
Fe1650     O1657   2.142       .  S
Fe1650     O1661   2.020       .  S
Fe1650     O1666   2.133       .  S
Fe1650     O1660   1.919       .  S
Fe1651     O1669   2.160       .  S
Fe1651     O1663   2.026       .  S
Fe1651     O1660   1.907       .  S
O1652      C1659   1.281       .  A
O1653      C1667   1.267       .  A
O1654      C1659   1.262   1_455  A
O1655      C1658   1.282       .  A
O1657      C1670   1.282       .  A
C1658      O1663   1.266       .  A
C1659      C1827   1.463       .  S
O1661      C1664   1.262       .  A
O1662      C1664   1.284       .  A
C1664      C1767   1.487       .  S
O1665      C1670   1.261       .  A
O1666      C1668   1.277       .  A
C1667      O1669   1.290       .  A
C1667      C1784   1.488       .  S
C1670      C1714   1.490       .  S
Fe1671     O1687   2.031       .  S
Fe1671     O1677   2.124       .  S
Fe1671     O1684   2.142       .  S
Fe1671     O1676   2.034       .  S
Fe1671     O1682   1.913       .  S
Fe1672     O1675   2.021       .  S
Fe1672     O1679   2.133       .  S
Fe1672     O1683   2.018       .  S
Fe1672     O1688   2.133       .  S
Fe1672     O1682   1.927       .  S
Fe1673     O1691   2.160       .  S
Fe1673     O1678   2.019       .  S
Fe1673     O1685   2.025       .  S
Fe1673     O1682   1.909       .  S
O1674      C1681   1.278       .  A
O1675      C1689   1.268       .  A
O1677      C1680   1.287       .  A
O1678      C1690   1.249       .  A
O1679      C1692   1.281       .  A
C1680      O1685   1.268       .  A
C1680      C1704   1.474       .  S
C1681      C1777   1.473       .  S
O1683      C1686   1.262       .  A
O1684      C1686   1.287       .  A
C1686      C1727   1.486       .  S
O1687      C1692   1.263       .  A
O1688      C1690   1.275       .  A
C1689      O1691   1.290       .  A
C1689      C1817   1.486       .  S
C1690      C1694   1.480       .  S
C1692      C1754   1.492       .  S
C1693      C1694   1.418       .  A
C1694      C1695   1.402       .  A
C1695      C1696   1.401       .  A
C1695      F1702   1.358       .  S
C1696      C1697   1.411       .  A
C1696      F1701   1.358       .  S
C1698      F1699   1.358       .  S
C1703      C1704   1.396       .  A
C1703      C1708   1.396       .  A
C1703      F1710   1.358       .  S
C1704      C1705   1.411   1_655  A
C1706      C1707   1.405       .  A
C1708      F1709   1.358       .  S
C1713      C1714   1.411       .  A
C1713      C1718   1.407       .  A
C1713      F1720   1.357       .  S
C1714      C1715   1.413       .  A
C1715      C1716   1.393       .  A
C1715      F1722   1.359       .  S
C1716      C1717   1.404       .  A
C1716      F1721   1.359       .  S
C1717      C1718   1.409       .  A
C1718      F1719   1.356       .  S
C1723      C1724   1.405       .  A
C1723      C1728   1.401       .  A
C1723      F1730   1.358       .  S
C1724      C2261   1.467   1_545  S
C1724      C1725   1.396       .  A
C1725      C1726   1.398       .  A
C1725      F1732   1.358       .  S
C1726      C1727   1.417       .  A
C1726      F1731   1.358       .  S
C1727      C1728   1.408       .  A
C1728      F1729   1.358       .  S
C1733      C1734   1.403       .  A
C1733      C1738   1.404       .  A
C1733      F1740   1.358       .  S
C1734      C2359   1.419   1_545  A
C1735      C2358   1.419       .  A
C1735      C1736   1.398       .  A
C1735      F1742   1.358       .  S
C1736      C1737   1.397       .  A
C1736      F1741   1.358       .  S
C1737      C2362   1.414       .  A
C1738      C2361   1.414   1_545  A
C1738      F1739   1.358       .  S
C1743      C1744   1.396       .  A
C1743      C1748   1.395       .  A
C1743      F1750   1.358       .  S
C1744      C2238   1.474       .  S
C1744      C2369   1.413       .  A
C1745      C2368   1.413       .  A
C1745      C2370   1.401       .  A
C1745      F1752   1.358       .  S
C1746      C2369   1.401       .  A
C1746      C1747   1.402       .  A
C1746      F1751   1.358       .  S
C1747      C1748   1.417       .  A
C1748      F1749   1.358       .  S
C1753      C1754   1.412       .  A
C1753      C1758   1.397       .  A
C1753      F1760   1.358       .  S
C1754      C1755   1.411       .  A
C1755      C1756   1.406       .  A
C1755      F1762   1.357       .  S
C1756      C1757   1.407       .  A
C1756      F1761   1.356       .  S
C1757      C1758   1.406       .  A
C1758      F1759   1.359       .  S
C1763      C1764   1.395       .  A
C1763      C1768   1.396       .  A
C1764      C1765   1.406       .  A
C1765      C1766   1.401       .  A
C1765      F1772   1.358       .  S
C1766      C1767   1.409       .  A
C1766      F1771   1.358       .  S
C1767      C1768   1.418       .  A
C1768      F1769   1.358       .  S
C1773      C1774   1.405       .  A
C1773      C1778   1.402       .  A
C1773      F1780   1.357       .  S
C1774      C1775   1.421       .  A
C1775      C1776   1.394       .  A
C1775      F1782   1.359       .  S
C1776      C1777   1.396       .  A
C1776      F1781   1.359       .  S
C1777      C1778   1.410       .  A
C1778      F1779   1.358       .  S
C1783      C1784   1.407       .  A
C1783      C1788   1.394       .  A
C1783      F1790   1.359       .  S
C1784      C1785   1.411   1_556  A
C1785      F1792   1.357       .  S
C1786      C1787   1.412       .  A
C1786      F1791   1.358       .  S
C1793      C1794   1.411       .  A
C1793      C1798   1.410       .  A
C1793      F1800   1.358       .  S
C1794      C1795   1.412       .  A
C1795      C1796   1.397       .  A
C1795      F1802   1.358       .  S
C1796      C1797   1.406       .  A
C1796      F1801   1.359       .  S
C1797      C1798   1.410       .  A
C1798      F1799   1.357       .  S
C1803      C1804   1.419       .  A
C1803      C1808   1.396       .  A
C1803      F1810   1.358       .  S
C1804      C1805   1.408       .  A
C1805      C1806   1.400       .  A
C1806      C1807   1.406       .  A
C1806      F1811   1.358       .  S
C1807      C1808   1.395       .  A
C1808      F1809   1.358       .  S
C1813      C1814   1.413       .  A
C1813      C1818   1.396       .  A
C1813      F1820   1.358       .  S
C1814      C1815   1.412       .  A
C1815      C1816   1.410       .  A
C1815      F1822   1.357       .  S
C1816      C1817   1.409       .  A
C1816      F1821   1.356       .  S
C1817      C1818   1.406       .  A
C1818      F1819   1.359       .  S
C1823      C1824   1.409       .  A
C1823      C1828   1.399       .  A
C1823      F1830   1.358       .  S
C1824      C1825   1.416       .  A
C1825      C1826   1.397       .  A
C1825      F1832   1.358       .  S
C1826      C1827   1.396       .  A
C1826      F1831   1.358       .  S
C1827      C1828   1.405       .  A
C1828      F1829   1.358       .  S
C1833      C1834   1.396       .  A
C1833      C1838   1.397       .  A
C1833      F1840   1.358       .  S
C1834      C1835   1.413       .  A
C1835      C1836   1.403       .  A
C1836      C1837   1.402       .  A
C1836      F1841   1.358       .  S
C1837      C1838   1.419       .  A
C1838      F1839   1.358       .  S
C1843      C1844   1.416       .  A
C1843      C1848   1.394       .  A
C1843      F1850   1.359       .  S
C1844      C1845   1.400       .  A
C1845      C1846   1.401       .  A
C1845      F1852   1.357       .  S
C1846      C1847   1.414       .  A
C1846      F1851   1.358       .  S
C1847      C1848   1.398       .  A
C1848      F1849   1.358       .  S
C1853      C1854   1.410       .  A
C1853      C1858   1.410       .  A
C1853      F1860   1.356       .  S
C1854      C1855   1.406       .  A
C1855      C1856   1.397       .  A
C1855      F1862   1.359       .  S
C1856      C1857   1.413       .  A
C1856      F1861   1.359       .  S
C1857      C1858   1.411       .  A
C1858      F1859   1.357       .  S
C1863      C1864   1.408       .  A
C1863      C1868   1.404       .  A
C1863      F1870   1.358       .  S
C1864      C1865   1.396       .  A
C1865      C1866   1.398       .  A
C1865      F1872   1.358       .  S
C1866      C1867   1.422       .  A
C1866      F1871   1.358       .  S
C1867      C1868   1.408       .  A
C1868      F1869   1.357       .  S
Fe1873     O1889   2.029       .  S
Fe1873     O1879   2.116       .  S
Fe1873     O1886   2.131       .  S
Fe1873     O1878   2.037       .  S
Fe1873     O1884   1.916       .  S
Fe1874     O1877   2.025       .  S
Fe1874     O1881   2.146       .  S
Fe1874     O1885   2.023       .  S
Fe1874     O1890   2.143       .  S
Fe1874     O1884   1.929       .  S
Fe1875     O1893   2.159       .  S
Fe1875     O1880   2.019       .  S
Fe1875     O1887   2.026       .  S
Fe1875     O1876   2.114       .  S
Fe1875     O1884   1.908       .  S
O1876      C1883   1.280       .  A
O1877      C1891   1.268       .  A
O1878      C1883   1.265       .  A
O1879      C1882   1.284       .  A
O1880      C1892   1.251       .  A
O1881      C1894   1.283       .  A
C1882      O1887   1.267       .  A
C1882      C2159   1.476       .  S
C1883      C2176   1.475       .  S
O1885      C1888   1.263       .  A
O1886      C1888   1.284       .  A
C1888      C2136   1.484       .  S
O1889      C1894   1.263       .  A
O1890      C1892   1.277       .  A
C1891      O1893   1.290       .  A
C1891      C2166   1.488       .  S
C1892      C2149   1.486       .  S
C1894      C2126   1.496       .  S
Fe1895     O1911   2.022       .  S
Fe1895     O1901   2.133       .  S
Fe1895     O1908   2.146       .  S
Fe1895     O1900   2.023       .  S
Fe1895     O1906   1.915       .  S
Fe1896     O1899   2.015       .  S
Fe1896     O1903   2.154       .  S
Fe1896     O1907   2.016       .  S
Fe1896     O1912   2.134       .  S
Fe1896     O1906   1.915       .  S
Fe1897     O1915   2.166       .  S
Fe1897     O1902   2.017       .  S
Fe1897     O1909   2.024       .  S
Fe1897     O1898   2.118       .  S
Fe1897     O1906   1.903       .  S
O1898      C1905   1.281       .  A
O1899      C1913   1.267       .  A
O1900      C1905   1.262       .  A
O1901      C1904   1.287       .  A
O1902      C1914   1.251       .  A
O1903      C1916   1.286       .  A
C1904      O1909   1.267       .  A
C1904      C2458   1.477   1_554  S
C1905      C2119   1.465       .  S
O1907      C1910   1.255       .  A
O1908      C1910   1.284       .  A
C1910      C2086   1.487       .  S
O1911      C1916   1.264       .  A
O1912      C1914   1.276       .  A
C1913      O1915   1.292       .  A
C1913      C2109   1.486       .  S
C1914      C2156   1.478       .  S
C1916      C2099   1.492       .  S
Fe1917     O1933   2.025       .  S
Fe1917     O1923   2.123       .  S
Fe1917     O1930   2.138       .  S
Fe1917     O2240   1.915       .  S
Fe1918     O1921   2.019       .  S
Fe1918     O2237   2.151   1_554  S
Fe1918     O1929   2.020       .  S
Fe1918     O1934   2.144       .  S
Fe1918     O1928   1.920   1_554  S
Fe1919     O1937   2.155       .  S
Fe1919     O2243   2.021   1_554  S
Fe1919     O1928   1.906   1_554  S
O1920      C1927   1.280       .  A
O1921      C1935   1.266       .  A
O1922      C1927   1.263   1_545  A
O1923      C1926   1.285       .  A
O1925     Fe2230   2.151       .  S
O1925      C1938   1.285       .  A
C1926      O1931   1.265       .  A
C1927      C2076   1.466       .  S
O1928     Fe2229   1.915       .  S
O1929      C1932   1.260       .  A
O1930      C2244   1.285       .  A
O1931     Fe2231   2.021       .  S
C1932      O2242   1.285   1_554  A
C1932      C2116   1.487       .  S
O1933      C1938   1.263       .  A
O1934      C1936   1.279       .  A
C1935      O1937   1.289       .  A
C1935      C2069   1.481       .  S
C1936      C2046   1.489       .  S
C1938      C2169   1.495       .  S
Fe1939     O1955   2.029       .  S
Fe1939     O1945   2.137       .  S
Fe1939     O1952   2.157       .  S
Fe1939     O1944   2.035       .  S
Fe1939     O1950   1.910       .  S
Fe1940     O1943   2.016       .  S
Fe1940     O1947   2.143       .  S
Fe1940     O1951   2.016       .  S
Fe1940     O1956   2.136       .  S
Fe1940     O1950   1.922       .  S
Fe1941     O1959   2.153       .  S
Fe1941     O1946   2.021       .  S
Fe1941     O1953   2.024       .  S
Fe1941     O1950   1.911       .  S
O1943      C1957   1.266       .  A
O1944      C1949   1.264       .  A
O1945      C1948   1.288       .  A
O1946      C1958   1.252       .  A
O1947      C1960   1.283       .  A
C1948      O1953   1.267       .  A
C1948      C2049   1.481       .  S
O1951      C1954   1.260       .  A
O1952      C1954   1.289       .  A
C1954      C2179   1.496       .  S
O1955      C1960   1.262       .  A
O1956      C1958   1.277       .  A
C1957      O1959   1.288       .  A
C1957      C2029   1.479       .  S
C1958      C2059   1.480       .  S
C1960      C2106   1.494       .  S
Fe1961     O1977   2.020       .  S
Fe1961     O1967   2.116       .  S
Fe1961     O1974   2.137       .  S
Fe1961     O1972   1.913       .  S
Fe1962     O1965   2.019       .  S
Fe1962     O1969   2.142       .  S
Fe1962     O1973   2.020       .  S
Fe1962     O1978   2.133       .  S
Fe1962     O1972   1.919       .  S
Fe1963     O1981   2.160       .  S
Fe1963     O1975   2.026       .  S
Fe1963     O1972   1.907       .  S
O1964      C1971   1.281       .  A
O1965      C1979   1.267       .  A
O1966      C1971   1.262   1_455  A
O1967      C1970   1.282       .  A
O1969      C1982   1.282       .  A
C1970      O1975   1.266       .  A
C1971      C2139   1.463       .  S
O1973      C1976   1.262       .  A
O1974      C1976   1.284       .  A
C1976      C2079   1.487       .  S
O1977      C1982   1.261       .  A
O1978      C1980   1.277       .  A
C1979      O1981   1.290       .  A
C1979      C2096   1.488       .  S
C1980      C2331   1.487       .  S
C1982      C2026   1.490       .  S
Fe1983     O1999   2.031       .  S
Fe1983     O1989   2.124       .  S
Fe1983     O1996   2.142       .  S
Fe1983     O1988   2.034       .  S
Fe1983     O1994   1.913       .  S
Fe1984     O1987   2.021       .  S
Fe1984     O1991   2.133       .  S
Fe1984     O1995   2.018       .  S
Fe1984     O2000   2.133       .  S
Fe1984     O1994   1.927       .  S
Fe1985     O2003   2.160       .  S
Fe1985     O1990   2.019       .  S
Fe1985     O1997   2.025       .  S
Fe1985     O1994   1.909       .  S
O1986      C1993   1.278       .  A
O1987      C2001   1.268       .  A
O1989      C1992   1.287       .  A
O1990      C2002   1.249       .  A
O1991      C2004   1.281       .  A
C1992      O1997   1.268       .  A
C1992      C2016   1.474       .  S
C1993      C2089   1.473       .  S
O1995      C1998   1.262       .  A
O1996      C1998   1.287       .  A
C1998      C2039   1.486       .  S
O1999      C2004   1.263       .  A
O2000      C2002   1.275       .  A
C2001      O2003   1.290       .  A
C2001      C2129   1.486       .  S
C2002      C2006   1.480       .  S
C2004      C2066   1.492       .  S
C2005      C2006   1.418       .  A
C2006      C2007   1.402       .  A
C2007      C2008   1.401       .  A
C2007      F2014   1.358       .  S
C2008      C2009   1.411       .  A
C2008      F2013   1.358       .  S
C2010      F2011   1.358       .  S
C2015      C2016   1.396       .  A
C2015      C2020   1.396       .  A
C2015      F2022   1.358       .  S
C2016      C2017   1.411   1_655  A
C2018      C2019   1.405       .  A
C2018      F2335   1.358       .  S
C2019      C2292   1.487   1_554  S
C2020      F2021   1.358   1_554  S
F2023      C2330   1.358       .  S
C2025      C2026   1.411       .  A
C2025      C2030   1.407       .  A
C2025      F2032   1.357       .  S
C2026      C2027   1.413       .  A
C2027      C2028   1.393       .  A
C2027      F2034   1.359       .  S
C2028      C2029   1.404       .  A
C2028      F2033   1.359       .  S
C2029      C2030   1.409       .  A
C2030      F2031   1.356       .  S
C2035      C2036   1.405       .  A
C2035      C2040   1.401       .  A
C2035      F2042   1.358       .  S
C2036      C2037   1.396       .  A
C2037      C2038   1.398       .  A
C2037      F2044   1.358       .  S
C2038      C2039   1.417       .  A
C2038      F2043   1.358       .  S
C2039      C2040   1.408       .  A
C2040      F2041   1.358       .  S
C2045      C2046   1.403       .  A
C2045      C2050   1.404       .  A
C2045      F2052   1.358       .  S
C2047      C2048   1.398       .  A
C2047      F2054   1.358       .  S
C2048      C2049   1.397       .  A
C2048      F2053   1.358       .  S
C2050      F2051   1.358       .  S
C2055      C2056   1.396   1_545  A
C2055      C2060   1.395   1_545  A
C2055      F2062   1.358       .  S
C2057      F2064   1.358       .  S
C2058      C2059   1.402       .  A
C2058      F2063   1.358       .  S
C2059      C2060   1.417       .  A
C2060      F2061   1.358   1_565  S
C2065      C2066   1.412       .  A
C2065      C2070   1.397       .  A
C2065      F2072   1.358       .  S
C2066      C2067   1.411       .  A
C2067      C2068   1.406       .  A
C2067      F2074   1.357       .  S
C2068      C2069   1.407       .  A
C2068      F2073   1.356       .  S
C2069      C2070   1.406       .  A
C2070      F2071   1.359       .  S
C2075      C2076   1.395       .  A
C2075      C2080   1.396       .  A
C2075      F2394   1.358       .  S
C2076      C2077   1.406       .  A
C2077      C2078   1.401       .  A
C2077      F2084   1.358       .  S
C2078      C2079   1.409       .  A
C2078      F2083   1.358       .  S
C2079      C2080   1.418       .  A
C2080      F2081   1.358       .  S
F2082      C2387   1.358   1_554  S
C2085      C2086   1.405       .  A
C2085      C2090   1.402       .  A
C2085      F2092   1.357       .  S
C2086      C2087   1.421       .  A
C2087      C2088   1.394       .  A
C2087      F2094   1.359       .  S
C2088      C2089   1.396       .  A
C2088      F2093   1.359       .  S
C2089      C2090   1.410       .  A
C2090      F2091   1.358       .  S
C2095      C2096   1.407       .  A
C2095      C2100   1.394       .  A
C2095      F2102   1.359       .  S
C2096      C2097   1.411       .  A
C2097      C2410   1.412       .  A
C2097      F2104   1.357       .  S
C2098      C2409   1.412       .  A
C2098      C2099   1.412       .  A
C2098      F2103   1.358       .  S
C2099      C2412   1.410   1_554  A
C2100      C2411   1.410       .  A
C2100      F2413   1.359       .  S
F2101      C2412   1.359       .  S
C2105      C2106   1.411       .  A
C2105      C2110   1.410       .  A
C2105      F2112   1.358       .  S
C2106      C2107   1.412       .  A
C2107      C2108   1.396       .  A
C2107      F2114   1.358       .  S
C2108      C2109   1.406       .  A
C2108      F2113   1.359       .  S
C2109      C2110   1.410       .  A
C2110      F2111   1.357       .  S
C2115      C2116   1.419       .  A
C2115      C2120   1.396       .  A
C2115      F2122   1.358       .  S
C2116      C2117   1.408       .  A
C2117      C2118   1.400       .  A
C2117      F2436   1.358   1_554  S
C2118      C2119   1.406       .  A
C2118      F2123   1.358   1_554  S
C2119      C2120   1.395       .  A
C2120      F2121   1.358       .  S
F2124      C2429   1.358       .  S
C2125      C2126   1.413       .  A
C2125      C2130   1.396       .  A
C2125      F2132   1.358       .  S
C2126      C2127   1.412       .  A
C2127      C2128   1.410       .  A
C2127      F2134   1.357       .  S
C2128      C2129   1.409       .  A
C2128      F2133   1.356       .  S
C2129      C2130   1.406       .  A
C2130      F2131   1.359       .  S
C2135      C2136   1.409       .  A
C2135      C2140   1.399       .  A
C2135      F2142   1.358       .  S
C2136      C2137   1.416       .  A
C2137      C2138   1.397       .  A
C2137      F2144   1.358       .  S
C2138      C2139   1.396       .  A
C2138      F2143   1.358       .  S
C2139      C2140   1.405       .  A
C2140      F2141   1.358       .  S
C2145      C2146   1.396       .  A
C2145      C2150   1.397       .  A
C2145      F2152   1.358       .  S
C2146      C2216   1.477       .  S
C2146      C2147   1.413       .  A
C2147      C2148   1.403       .  A
C2147      F2466   1.358       .  S
C2148      C2149   1.402       .  A
C2148      F2153   1.358       .  S
C2149      C2150   1.419       .  A
C2150      F2151   1.358       .  S
F2154      C2459   1.358   1_554  S
C2155      C2156   1.416       .  A
C2155      C2160   1.394       .  A
C2155      F2162   1.359       .  S
C2156      C2157   1.400       .  A
C2157      C2158   1.401       .  A
C2157      F2164   1.357       .  S
C2158      C2159   1.414       .  A
C2158      F2163   1.358       .  S
C2159      C2160   1.398       .  A
C2160      F2161   1.358       .  S
C2165      C2166   1.410       .  A
C2165      C2170   1.410       .  A
C2165      F2172   1.356       .  S
C2166      C2167   1.406       .  A
C2167      C2168   1.397       .  A
C2167      F2174   1.359       .  S
C2168      C2169   1.413       .  A
C2168      F2173   1.359       .  S
C2169      C2170   1.411       .  A
C2170      F2171   1.357       .  S
C2175      C2176   1.408       .  A
C2175      C2180   1.404       .  A
C2175      F2182   1.358       .  S
C2176      C2177   1.396       .  A
C2177      C2178   1.398       .  A
C2177      F2184   1.358       .  S
C2178      C2179   1.422       .  A
C2178      F2183   1.358       .  S
C2179      C2180   1.408       .  A
C2180      F2181   1.357       .  S
Fe2185     O2201   2.029       .  S
Fe2185     O2191   2.116       .  S
Fe2185     O2198   2.131       .  S
Fe2185     O2190   2.037       .  S
Fe2185     O2196   1.916       .  S
Fe2186     O2189   2.025       .  S
Fe2186     O2193   2.146       .  S
Fe2186     O2197   2.023       .  S
Fe2186     O2202   2.143       .  S
Fe2186     O2196   1.929       .  S
Fe2187     O2205   2.159       .  S
Fe2187     O2192   2.019       .  S
Fe2187     O2199   2.026       .  S
Fe2187     O2188   2.114       .  S
Fe2187     O2196   1.908       .  S
O2188      C2195   1.280       .  A
O2189      C2203   1.268       .  A
O2190      C2195   1.265       .  A
O2191      C2194   1.284       .  A
O2192      C2204   1.251       .  A
O2193      C2206   1.283       .  A
C2194      O2199   1.267       .  A
C2194      C2471   1.476       .  S
C2195      C2488   1.475       .  S
O2197      C2200   1.263       .  A
O2198      C2200   1.284       .  A
C2200      C2448   1.484       .  S
O2201      C2206   1.263       .  A
O2202      C2204   1.277       .  A
C2203      O2205   1.290       .  A
C2203      C2478   1.488       .  S
C2204      C2461   1.486       .  S
C2206      C2438   1.496       .  S
Fe2207     O2223   2.022       .  S
Fe2207     O2213   2.133       .  S
Fe2207     O2220   2.146       .  S
Fe2207     O2212   2.023       .  S
Fe2207     O2218   1.915       .  S
Fe2208     O2211   2.015       .  S
Fe2208     O2215   2.154       .  S
Fe2208     O2219   2.016       .  S
Fe2208     O2224   2.134       .  S
Fe2208     O2218   1.915       .  S
Fe2209     O2227   2.166       .  S
Fe2209     O2214   2.017       .  S
Fe2209     O2221   2.024       .  S
Fe2209     O2210   2.118       .  S
Fe2209     O2218   1.903       .  S
O2210      C2217   1.281       .  A
O2211      C2225   1.267       .  A
O2212      C2217   1.262       .  A
O2213      C2216   1.287       .  A
O2214      C2226   1.251       .  A
O2215      C2228   1.286       .  A
C2216      O2221   1.267       .  A
C2217      C2431   1.465       .  S
O2219      C2222   1.255       .  A
O2220      C2222   1.284       .  A
C2222      C2398   1.487       .  S
O2223      C2228   1.264       .  A
O2224      C2226   1.276       .  A
C2225      O2227   1.292       .  A
C2225      C2421   1.486       .  S
C2226      C2468   1.478       .  S
C2228      C2411   1.492       .  S
Fe2229     O2245   2.025       .  S
Fe2229     O2235   2.123       .  S
Fe2229     O2242   2.138       .  S
Fe2230     O2233   2.019       .  S
Fe2230     O2241   2.020       .  S
Fe2230     O2246   2.144       .  S
Fe2230     O2240   1.920       .  S
Fe2231     O2249   2.155       .  S
Fe2231     O2240   1.906       .  S
O2232      C2239   1.280       .  A
O2233      C2247   1.266       .  A
O2234      C2239   1.263   1_545  A
O2235      C2238   1.285       .  A
O2237      C2250   1.285       .  A
C2238      O2243   1.265       .  A
C2239      C2388   1.466       .  S
O2241      C2244   1.260       .  A
C2244      C2428   1.487       .  S
O2245      C2250   1.263       .  A
O2246      C2248   1.279       .  A
C2247      O2249   1.289       .  A
C2247      C2381   1.481       .  S
C2248      C2358   1.489       .  S
C2250      C2481   1.495       .  S
Fe2251     O2267   2.029       .  S
Fe2251     O2257   2.137       .  S
Fe2251     O2264   2.157       .  S
Fe2251     O2256   2.035       .  S
Fe2251     O2262   1.910       .  S
Fe2252     O2255   2.016       .  S
Fe2252     O2259   2.143       .  S
Fe2252     O2263   2.016       .  S
Fe2252     O2268   2.136       .  S
Fe2252     O2262   1.922       .  S
Fe2253     O2271   2.153       .  S
Fe2253     O2258   2.021       .  S
Fe2253     O2265   2.024       .  S
Fe2253     O2262   1.911       .  S
O2255      C2269   1.266       .  A
O2256      C2261   1.264       .  A
O2257      C2260   1.288       .  A
O2258      C2270   1.252       .  A
O2259      C2272   1.283       .  A
C2260      O2265   1.267       .  A
C2260      C2361   1.481       .  S
O2263      C2266   1.260       .  A
O2264      C2266   1.289       .  A
C2266      C2491   1.496       .  S
O2267      C2272   1.262       .  A
O2268      C2270   1.277       .  A
C2269      O2271   1.288       .  A
C2269      C2341   1.479       .  S
C2270      C2371   1.480       .  S
C2272      C2418   1.494       .  S
Fe2273     O2289   2.020       .  S
Fe2273     O2279   2.116       .  S
Fe2273     O2286   2.137       .  S
Fe2273     O2284   1.913       .  S
Fe2274     O2277   2.019       .  S
Fe2274     O2281   2.142       .  S
Fe2274     O2285   2.020       .  S
Fe2274     O2290   2.133       .  S
Fe2274     O2284   1.919       .  S
Fe2275     O2293   2.160       .  S
Fe2275     O2287   2.026       .  S
Fe2275     O2284   1.907       .  S
O2276      C2283   1.281       .  A
O2277      C2291   1.267       .  A
O2278      C2283   1.262   1_455  A
O2279      C2282   1.282       .  A
O2281      C2294   1.282       .  A
C2282      O2287   1.266       .  A
C2283      C2451   1.463       .  S
O2285      C2288   1.262       .  A
O2286      C2288   1.284       .  A
C2288      C2391   1.487       .  S
O2289      C2294   1.261       .  A
O2290      C2292   1.277       .  A
C2291      O2293   1.290       .  A
C2291      C2408   1.488       .  S
C2294      C2338   1.490       .  S
Fe2295     O2311   2.031       .  S
Fe2295     O2301   2.124       .  S
Fe2295     O2308   2.142       .  S
Fe2295     O2300   2.034       .  S
Fe2295     O2306   1.913       .  S
Fe2296     O2299   2.021       .  S
Fe2296     O2303   2.133       .  S
Fe2296     O2307   2.018       .  S
Fe2296     O2312   2.133       .  S
Fe2296     O2306   1.927       .  S
Fe2297     O2315   2.160       .  S
Fe2297     O2302   2.019       .  S
Fe2297     O2309   2.025       .  S
Fe2297     O2306   1.909       .  S
O2298      C2305   1.278       .  A
O2299      C2313   1.268       .  A
O2301      C2304   1.287       .  A
O2302      C2314   1.249       .  A
O2303      C2316   1.281       .  A
C2304      O2309   1.268       .  A
C2304      C2328   1.474       .  S
C2305      C2401   1.473       .  S
O2307      C2310   1.262       .  A
O2308      C2310   1.287       .  A
C2310      C2351   1.486       .  S
O2311      C2316   1.263       .  A
O2312      C2314   1.275       .  A
C2313      O2315   1.290       .  A
C2313      C2441   1.486       .  S
C2314      C2318   1.480       .  S
C2316      C2378   1.492       .  S
C2317      C2318   1.418       .  A
C2318      C2319   1.402       .  A
C2319      C2320   1.401       .  A
C2319      F2326   1.358       .  S
C2320      C2321   1.411       .  A
C2320      F2325   1.358       .  S
C2322      F2323   1.358       .  S
C2327      C2328   1.396       .  A
C2327      C2332   1.396       .  A
C2327      F2334   1.358       .  S
C2328      C2329   1.411   1_655  A
C2330      C2331   1.405       .  A
C2332      F2333   1.358       .  S
C2337      C2338   1.411       .  A
C2337      C2342   1.407       .  A
C2337      F2344   1.357       .  S
C2338      C2339   1.413       .  A
C2339      C2340   1.393       .  A
C2339      F2346   1.359       .  S
C2340      C2341   1.404       .  A
C2340      F2345   1.359       .  S
C2341      C2342   1.409       .  A
C2342      F2343   1.356       .  S
C2347      C2348   1.405       .  A
C2347      C2352   1.401       .  A
C2347      F2354   1.358       .  S
C2348      C2349   1.396       .  A
C2349      C2350   1.398       .  A
C2349      F2356   1.358       .  S
C2350      C2351   1.417       .  A
C2350      F2355   1.358       .  S
C2351      C2352   1.408       .  A
C2352      F2353   1.358       .  S
C2357      C2358   1.403       .  A
C2357      C2362   1.404       .  A
C2357      F2364   1.358       .  S
C2359      C2360   1.398       .  A
C2359      F2366   1.358       .  S
C2360      C2361   1.397       .  A
C2360      F2365   1.358       .  S
C2362      F2363   1.358       .  S
C2367      C2368   1.396   1_545  A
C2367      C2372   1.395   1_545  A
C2367      F2374   1.358       .  S
C2369      F2376   1.358       .  S
C2370      C2371   1.402       .  A
C2370      F2375   1.358       .  S
C2371      C2372   1.417       .  A
C2372      F2373   1.358   1_565  S
C2377      C2378   1.412       .  A
C2377      C2382   1.397       .  A
C2377      F2384   1.358       .  S
C2378      C2379   1.411       .  A
C2379      C2380   1.406       .  A
C2379      F2386   1.357       .  S
C2380      C2381   1.407       .  A
C2380      F2385   1.356       .  S
C2381      C2382   1.406       .  A
C2382      F2383   1.359       .  S
C2387      C2388   1.395       .  A
C2387      C2392   1.396       .  A
C2388      C2389   1.406       .  A
C2389      C2390   1.401       .  A
C2389      F2396   1.358       .  S
C2390      C2391   1.409       .  A
C2390      F2395   1.358       .  S
C2391      C2392   1.418       .  A
C2392      F2393   1.358       .  S
C2397      C2398   1.405       .  A
C2397      C2402   1.402       .  A
C2397      F2404   1.357       .  S
C2398      C2399   1.421       .  A
C2399      C2400   1.394       .  A
C2399      F2406   1.359       .  S
C2400      C2401   1.396       .  A
C2400      F2405   1.359       .  S
C2401      C2402   1.410       .  A
C2402      F2403   1.358       .  S
C2407      C2408   1.407       .  A
C2407      C2412   1.394       .  A
C2407      F2414   1.359       .  S
C2408      C2409   1.411   1_556  A
C2409      F2416   1.357       .  S
C2410      C2411   1.412       .  A
C2410      F2415   1.358       .  S
C2417      C2418   1.411       .  A
C2417      C2422   1.410       .  A
C2417      F2424   1.358       .  S
C2418      C2419   1.412       .  A
C2419      C2420   1.396       .  A
C2419      F2426   1.358       .  S
C2420      C2421   1.406       .  A
C2420      F2425   1.359       .  S
C2421      C2422   1.410       .  A
C2422      F2423   1.357       .  S
C2427      C2428   1.419       .  A
C2427      C2432   1.396       .  A
C2427      F2434   1.358       .  S
C2428      C2429   1.408       .  A
C2429      C2430   1.400       .  A
C2430      C2431   1.406       .  A
C2430      F2435   1.358       .  S
C2431      C2432   1.395       .  A
C2432      F2433   1.358       .  S
C2437      C2438   1.413       .  A
C2437      C2442   1.396       .  A
C2437      F2444   1.358       .  S
C2438      C2439   1.412       .  A
C2439      C2440   1.410       .  A
C2439      F2446   1.357       .  S
C2440      C2441   1.409       .  A
C2440      F2445   1.356       .  S
C2441      C2442   1.406       .  A
C2442      F2443   1.359       .  S
C2447      C2448   1.409       .  A
C2447      C2452   1.399       .  A
C2447      F2454   1.358       .  S
C2448      C2449   1.416       .  A
C2449      C2450   1.397       .  A
C2449      F2456   1.358       .  S
C2450      C2451   1.396       .  A
C2450      F2455   1.358       .  S
C2451      C2452   1.405       .  A
C2452      F2453   1.358       .  S
C2457      C2458   1.396       .  A
C2457      C2462   1.397       .  A
C2457      F2464   1.358       .  S
C2458      C2459   1.413       .  A
C2459      C2460   1.403       .  A
C2460      C2461   1.402       .  A
C2460      F2465   1.358       .  S
C2461      C2462   1.419       .  A
C2462      F2463   1.358       .  S
C2467      C2468   1.416       .  A
C2467      C2472   1.394       .  A
C2467      F2474   1.359       .  S
C2468      C2469   1.400       .  A
C2469      C2470   1.401       .  A
C2469      F2476   1.357       .  S
C2470      C2471   1.414       .  A
C2470      F2475   1.358       .  S
C2471      C2472   1.398       .  A
C2472      F2473   1.358       .  S
C2477      C2478   1.410       .  A
C2477      C2482   1.410       .  A
C2477      F2484   1.356       .  S
C2478      C2479   1.406       .  A
C2479      C2480   1.397       .  A
C2479      F2486   1.359       .  S
C2480      C2481   1.413       .  A
C2480      F2485   1.359       .  S
C2481      C2482   1.411       .  A
C2482      F2483   1.357       .  S
C2487      C2488   1.408       .  A
C2487      C2492   1.404       .  A
C2487      F2494   1.358       .  S
C2488      C2489   1.396       .  A
C2489      C2490   1.398       .  A
C2489      F2496   1.358       .  S
C2490      C2491   1.422       .  A
C2490      F2495   1.358       .  S
C2491      C2492   1.408       .  A
C2492      F2493   1.357       .  S
