geometry optimzed in LAMMPS
_audit_creation_date              2020-11-30 
_audit_creation_method            'lammps2cif' 
_symmetry_space_group_name_H-M    'P1' 
_symmetry_Int_Tables_number       1 
_symmetry_cell_setting            triclinic 
loop_ 
_symmetry_equiv_pos_as_xyz 
  x,y,z 
_cell_length_a                    36.90489602 
_cell_length_b                    38.19179259748784 
_cell_length_c                    30.854474159319363 
_cell_angle_alpha                 90.10149209704791 
_cell_angle_beta                  89.67169087418637 
_cell_angle_gamma                 123.90989151491715 
loop_ 
_atom_site_label 
_atom_site_type_symbol 
_atom_site_fract_x 
_atom_site_fract_y 
_atom_site_fract_z 
_atom_site_charge 
O1          O  0.20515299  0.68491654  0.17512735    -0.81400
O2          O  0.26641001  0.87039205  0.23046374    -0.66100
O3          O  0.20344428  0.75508809  0.19581697    -1.12700
C4          C  0.22896088  0.80864513  0.05352840     1.05500
O5          O  0.23902288  0.89166788  0.18117493    -0.79300
O6          O  0.16983595  0.82099022  0.14097807    -0.66900
Ni7        Ni  0.21952387  0.72088424  0.22397182     1.34900
C8          C  0.14704684  0.78237844  0.12971052     0.84200
O9          O  0.21903101  0.79845326  0.27476888    -0.79900
O10         O  0.23327969  0.74934825  0.27899724    -0.90100
C11         C  0.26198106  0.89840003  0.21477977     0.83800
O12         O  0.27869617  0.75644586  0.20502985    -0.68300
O13         O  0.22335170  0.83535819  0.07163470    -0.87600
C14         C  0.30385180  0.79469265  0.21665134     0.84600
C15         C  0.22590535  0.77472211  0.29698962     1.06200
H16         H  0.27942949  0.83946797  0.14966435     0.38000
O17         O  0.24840976  0.82562972  0.15437665    -1.10300
O18         O  0.16358007  0.76091817  0.12427921    -0.66900
Ni19       Ni  0.21904715  0.76842995  0.13515826     1.26300
O20         O  0.28973589  0.81797181  0.22424803    -0.67200
O21         O  0.23483173  0.78388161  0.07535999    -0.79500
C22         C  0.19181480  0.68147246  0.13664023     0.84000
O23         O  0.19138315  0.71065368  0.11738233    -0.66600
Ni24       Ni  0.23080679  0.85982542  0.12862866     1.27400
Ni25       Ni  0.23469674  0.81260839  0.21462784     1.26100
H26         H  0.17249775  0.74217893  0.20003180     0.38500
O27         O  0.21226584  0.68458103  0.66903911    -0.81400
O28         O  0.26070417  0.86408575  0.73341955    -0.66100
O29         O  0.20332055  0.75065055  0.69442079    -1.12700
C30         C  0.23074033  0.81112993  0.55474313     1.05500
O31         O  0.22686688  0.88147990  0.68798155    -0.79300
O32         O  0.16340296  0.81306241  0.63949209    -0.66900
Ni33       Ni  0.21760585  0.71456067  0.72153211     1.34900
C34         C  0.14354044  0.77416995  0.62968258     0.84200
O35         O  0.21619530  0.79156936  0.77516525    -0.79900
O36         O  0.22238540  0.73700254  0.77904277    -0.90100
C37         C  0.25130448  0.88958516  0.72082168     0.83800
O38         O  0.27894777  0.75227770  0.71227544    -0.68300
O39         O  0.22330268  0.83624171  0.57390818    -0.87600
C40         C  0.30284904  0.79115104  0.72214596     0.84600
C41         C  0.21871381  0.76491297  0.79704057     1.06200
H42         H  0.27693216  0.83857974  0.65176919     0.38000
O43         O  0.24571354  0.82290606  0.65612630    -1.10300
O44         O  0.16330027  0.75588936  0.62398999    -0.66900
Ni45       Ni  0.22004974  0.76713703  0.63451194     1.26300
O46         O  0.28795363  0.81432656  0.72569063    -0.67200
O47         O  0.23641055  0.78565802  0.57547855    -0.79500
C48         C  0.19949301  0.68262061  0.63037236     0.84000
O49         O  0.19570402  0.71094471  0.61415908    -0.66600
Ni50       Ni  0.22488327  0.85546960  0.63259659     1.27400
Ni51       Ni  0.23197479  0.80724306  0.71569431     1.26100
H52         H  0.17222987  0.73720117  0.69784007     0.38500
O53         O  0.49649839  0.78792336  0.33310488    -0.81400
O54         O  0.62099407  0.73038619  0.39367145    -0.66100
O55         O  0.57128375  0.78997792  0.35621058    -1.12700
C56         C  0.59569537  0.75551182  0.21500674     1.05500
O57         O  0.67496662  0.76246265  0.34559900    -0.79300
O58         O  0.67751211  0.81988551  0.29073582    -0.66900
Ni59       Ni  0.51917125  0.77843516  0.38443497     1.34900
C60         C  0.66232834  0.84229334  0.28482579     0.84200
O61         O  0.59756974  0.77499812  0.43615775    -0.79900
O62         O  0.53459866  0.76967510  0.44123079    -0.90100
C63         C  0.65750302  0.73956111  0.37917950     0.83800
O64         O  0.48836324  0.71995200  0.37151653    -0.68300
O65         O  0.62752938  0.75682791  0.23285253    -0.87600
C66         C  0.49941412  0.69443405  0.37927495     0.84600
C67         C  0.56757532  0.77306482  0.45860163     1.06200
H68         H  0.57358929  0.71584218  0.31299072     0.38000
O69         O  0.59436698  0.74589180  0.31681769    -1.10300
O70         O  0.62169702  0.82721274  0.28508635    -0.66900
Ni71       Ni  0.56819491  0.77361474  0.29603383     1.26300
O72         O  0.53898492  0.70657348  0.38588813    -0.67200
O73         O  0.56731273  0.75755681  0.23661601    -0.79500
C74         C  0.50751639  0.79797641  0.29370235     0.84000
O75         O  0.53946572  0.79934954  0.27631658    -0.66600
Ni76       Ni  0.64834949  0.75976720  0.29083022     1.27400
Ni77       Ni  0.59538801  0.75970721  0.37660295     1.26100
H78         H  0.59319449  0.81979717  0.35944328     0.38500
O79         O  0.50914691  0.80188685  0.83521690    -0.81400
O80         O  0.63479917  0.74239142  0.89114303    -0.66100
O81         O  0.58352617  0.80212138  0.85663688    -1.12700
C82         C  0.60975876  0.77333689  0.71416757     1.05500
O83         O  0.68932397  0.77528180  0.84324016    -0.79300
O84         O  0.69064688  0.83731690  0.79449209    -0.66900
Ni85       Ni  0.53080045  0.78912380  0.88491531     1.34900
C86         C  0.67419139  0.85841764  0.78665330     0.84200
O87         O  0.60750080  0.78260731  0.93668701    -0.79900
O88         O  0.54389110  0.77599098  0.94039933    -0.90100
C89         C  0.67169048  0.75200498  0.87679009     0.83800
O90         O  0.50112870  0.73196813  0.86747420    -0.68300
O91         O  0.64387449  0.77860242  0.73137253    -0.87600
C92         C  0.51220292  0.70622881  0.87345979     0.84600
C93         C  0.57577309  0.77798928  0.95848077     1.06200
H94         H  0.58926996  0.73071013  0.81032870     0.38000
O95         O  0.60886474  0.76069738  0.81537037    -1.10300
O96         O  0.63311731  0.84153523  0.78443810    -0.66900
Ni97       Ni  0.58043943  0.78674049  0.79588033     1.26300
O98         O  0.55138039  0.71767578  0.88158656    -0.67200
O99         O  0.57926988  0.77089174  0.73654788    -0.79500
C100        C  0.51776326  0.80991709  0.79520918     0.84000
O101        O  0.54866909  0.81007971  0.77662667    -0.66600
Ni102      Ni  0.66367058  0.77753010  0.78913108     1.27400
Ni103      Ni  0.60806260  0.77148641  0.87581845     1.26100
H104        H  0.60525212  0.83196160  0.86034998     0.38500
O105        O  0.22303917  0.51465675  0.97398214    -0.81400
O106        O  0.24792091  0.37530626  0.93039202    -0.66100
O107        O  0.19102509  0.43106936  0.95424011    -1.12700
C108        C  0.20483142  0.40831137  0.10005365     1.05500
O109        O  0.20849218  0.32448636  0.97916741    -0.79300
O110        O  0.14360003  0.32931365  0.01766226    -0.66900
Ni111      Ni  0.20598745  0.48025211  0.92317244     1.34900
C112        C  0.12378931  0.34740724  0.02437480     0.84200
O113        O  0.21265763  0.40567951  0.87803617    -0.79900
O114        O  0.18998761  0.44920828  0.87058797    -0.90100
C115        C  0.23509850  0.33972254  0.94702574     0.83800
O116        O  0.26608095  0.50313019  0.91173768    -0.68300
O117        O  0.19766264  0.37342918  0.08575725    -0.87600
C118        C  0.29140462  0.49205055  0.92245294     0.84600
C119        C  0.19832979  0.42348733  0.85506237     1.06200
H120        H  0.25758518  0.42189371  0.00917321     0.38000
O121        O  0.22691160  0.40450242  0.00197789    -1.10300
O122        O  0.14351953  0.38746202  0.02574422    -0.66900
Ni123      Ni  0.20216903  0.43582695  0.01491572     1.26300
O124        O  0.27784012  0.45581163  0.93767291    -0.67200
O125        O  0.21395123  0.43880097  0.07518602    -0.79500
C126        C  0.19833184  0.50627125  0.00651184     0.84000
O127        O  0.18002046  0.47044223  0.02487005    -0.66600
Ni128      Ni  0.20330225  0.35165864  0.03050902     1.27400
Ni129      Ni  0.22017878  0.40433640  0.94037950     1.26100
H130        H  0.16025170  0.41070013  0.94955531     0.38500
O131        O  0.18458214  0.48911496  0.47760634    -0.81400
O132        O  0.24834032  0.37498982  0.42519053    -0.66100
O133        O  0.17578782  0.41186585  0.45955674    -1.12700
C134        C  0.21282901  0.39758864  0.60007611     1.05500
O135        O  0.21706454  0.32255366  0.47298244    -0.79300
O136        O  0.15016514  0.31633834  0.51984565    -0.66900
Ni137      Ni  0.17449805  0.45393185  0.42752033     1.34900
C138        C  0.12680534  0.32959534  0.53173208     0.84200
O139        O  0.19747437  0.38978194  0.38063000    -0.79900
O140        O  0.16432276  0.42393798  0.37356478    -0.90100
C141        C  0.24180214  0.34109801  0.44032049     0.83800
O142        O  0.23494197  0.48812124  0.41380516    -0.68300
O143        O  0.20911683  0.36523498  0.58318436    -0.87600
C144        C  0.26685647  0.48417300  0.41627683     0.84600
C145        C  0.17851270  0.40271926  0.35798158     1.06200
H146        H  0.25740947  0.41865643  0.50429248     0.38000
O147        O  0.22660268  0.39779631  0.50020405    -1.10300
O148        O  0.14203328  0.36865131  0.53483716    -0.66900
Ni149      Ni  0.19494187  0.42086143  0.51883761     1.26300
O150        O  0.26324545  0.45101429  0.43059928    -0.67200
O151        O  0.21376699  0.42631954  0.57781215    -0.79500
C152        C  0.17341934  0.48076354  0.51739345     0.84000
O153        O  0.16554488  0.44715243  0.53498449    -0.66600
Ni154      Ni  0.21239055  0.34623825  0.52641810     1.27400
Ni155      Ni  0.21247031  0.39424727  0.44046294     1.26100
H156        H  0.14626190  0.38717118  0.45842598     0.38500
O157        O  0.54425891  0.20427301  0.35003774    -0.81400
O158        O  0.41449628  0.25735076  0.38507801    -0.66100
O159        O  0.46215760  0.19245408  0.36348708    -1.12700
C160        C  0.45232529  0.21834459  0.21800986     1.05500
O161        O  0.36493416  0.22649404  0.33293777    -0.79300
O162        O  0.36359094  0.16100425  0.29452484    -0.66900
Ni163      Ni  0.50805688  0.19867576  0.39837459     1.34900
C164        C  0.37827514  0.13802243  0.28948832     0.84200
O165        O  0.43257293  0.21409025  0.43627454    -0.79900
O166        O  0.47687483  0.19270534  0.45053916    -0.90100
C167        C  0.37942708  0.24851441  0.36731949     0.83800
O168        O  0.54096793  0.25852549  0.40420340    -0.68300
O169        O  0.41754803  0.21477877  0.23093188    -0.87600
C170        C  0.53298076  0.28654395  0.39846235     0.84600
C171        C  0.44981609  0.20166190  0.46212654     1.06200
H172        H  0.46723048  0.26616560  0.30988668     0.38000
O173        O  0.44592268  0.23650420  0.31520793    -1.10300
O174        O  0.41896055  0.15305954  0.28952726    -0.66900
Ni175      Ni  0.47229601  0.20640160  0.30323628     1.26300
O176        O  0.49607079  0.27806391  0.38553132    -0.67200
O177        O  0.48077817  0.22137729  0.24365743    -0.79500
C178        C  0.53357611  0.18477747  0.31406898     0.84000
O179        O  0.50060400  0.17758361  0.29315797    -0.66600
Ni180      Ni  0.39401933  0.22042569  0.28407651     1.27400
Ni181      Ni  0.43946964  0.22580216  0.37581487     1.26100
H182        H  0.43815630  0.16328831  0.36649605     0.38500
O183        O  0.53672058  0.20734733  0.84776457    -0.81400
O184        O  0.40572588  0.25454860  0.88272834    -0.66100
O185        O  0.45222833  0.18814901  0.86438624    -1.12700
C186        C  0.43948901  0.21096199  0.71822279     1.05500
O187        O  0.35200084  0.21636141  0.83611993    -0.79300
O188        O  0.35113155  0.15245256  0.79372382    -0.66900
Ni189      Ni  0.50007206  0.19703727  0.89727144     1.34900
C190        C  0.36581247  0.12929836  0.79111523     0.84200
O191        O  0.42826322  0.21486137  0.93730319    -0.79900
O192        O  0.46749978  0.18705229  0.94910920    -0.90100
C193        C  0.36991443  0.24456151  0.86555367     0.83800
O194        O  0.53015698  0.25648937  0.90627535    -0.68300
O195        O  0.40483740  0.20831530  0.73056708    -0.87600
C196        C  0.52271485  0.28416735  0.89629323     0.84600
C197        C  0.44379535  0.19963918  0.96213673     1.06200
H198        H  0.45400256  0.25779533  0.80725794     0.38000
O199        O  0.43301700  0.22850086  0.81453629    -1.10300
O200        O  0.40647401  0.14407960  0.79280676    -0.66900
Ni201      Ni  0.45981093  0.19878180  0.80375841     1.26300
O202        O  0.48683009  0.27495498  0.87985730    -0.67200
O203        O  0.46630689  0.21125067  0.74406685    -0.79500
C204        C  0.52593520  0.18469796  0.81393783     0.84000
O205        O  0.49010738  0.17163475  0.79500801    -0.66600
Ni206      Ni  0.38052384  0.21189825  0.78493208     1.27400
Ni207      Ni  0.43015627  0.22207216  0.87563022     1.26100
H208        H  0.42852980  0.15913586  0.86920029     0.38500
O209        O  0.83282279  0.29490538  0.16993710    -0.81400
O210        O  0.76050912  0.10506982  0.22181126    -0.66100
O211        O  0.82726120  0.22030258  0.18757085    -1.12700
C212        C  0.79323947  0.16357805  0.04752126     1.05500
O213        O  0.79503419  0.08836266  0.17614119    -0.79300
O214        O  0.86039530  0.15788866  0.13052587    -0.66900
Ni215      Ni  0.81835164  0.25831181  0.21940537     1.34900
C216        C  0.88107275  0.19587294  0.11720611     0.84200
O217        O  0.81126738  0.17542318  0.26504083    -0.79900
O218        O  0.80471729  0.22900527  0.27526753    -0.90100
C219        C  0.76930748  0.07930562  0.20829842     0.83800
O220        O  0.75856050  0.22736259  0.20393374    -0.68300
O221        O  0.80206900  0.13876725  0.06475806    -0.87600
C222        C  0.73039451  0.18850001  0.21124516     0.84600
C223        C  0.80825236  0.19986699  0.29001417     1.06200
H224        H  0.74837042  0.13481504  0.14348295     0.38000
O225        O  0.77946956  0.14952567  0.14738693    -1.10300
O226        O  0.86229081  0.21512616  0.11200922    -0.66900
Ni227      Ni  0.80709593  0.20590999  0.12809300     1.26300
O228        O  0.74058847  0.16170455  0.21697265    -0.67200
O229        O  0.78734005  0.18822576  0.06988643    -0.79500
C230        C  0.83783687  0.29438418  0.12909566     0.84000
O231        O  0.83211565  0.26252310  0.10931163    -0.66600
Ni232      Ni  0.79898527  0.11674181  0.12213459     1.27400
Ni233      Ni  0.79389990  0.16279800  0.20637347     1.26100
H234        H  0.85792357  0.23095434  0.18924486     0.38500
O235        O  0.83398880  0.30996102  0.67523739    -0.81400
O236        O  0.76344002  0.11930788  0.72466146    -0.66100
O237        O  0.82795751  0.23511994  0.69316782    -1.12700
C238        C  0.79294556  0.18086624  0.55031766     1.05500
O239        O  0.79742754  0.10358733  0.67657038    -0.79300
O240        O  0.86072095  0.17053262  0.62696031    -0.66900
Ni241      Ni  0.81500326  0.27107165  0.72305327     1.34900
C242        C  0.88264266  0.21013292  0.62059046     0.84200
O243        O  0.80941028  0.18949854  0.77077195    -0.79900
O244        O  0.79695583  0.23971735  0.77693528    -0.90100
C245        C  0.77320405  0.09444371  0.71020090     0.83800
O246        O  0.75660516  0.23853363  0.70225598    -0.68300
O247        O  0.79896573  0.15313935  0.56512980    -0.87600
C248        C  0.72927672  0.19976127  0.71131150     0.84600
C249        C  0.80144428  0.21200891  0.79378928     1.06200
H250        H  0.75077034  0.15132865  0.64677615     0.38000
O251        O  0.78185478  0.16521155  0.65092449    -1.10300
O252        O  0.86522545  0.23089756  0.61937656    -0.66900
Ni253      Ni  0.80990673  0.22191841  0.63328130     1.26300
O254        O  0.74076721  0.17433901  0.71954171    -0.67200
O255        O  0.79116105  0.20674523  0.57477523    -0.79500
C256        C  0.84274553  0.31040557  0.63526508     0.84000
O257        O  0.83693506  0.27858093  0.61576116    -0.66600
Ni258      Ni  0.79860149  0.13124831  0.62263475     1.27400
Ni259      Ni  0.79514559  0.17731111  0.71070319     1.26100
H260        H  0.85875526  0.24678794  0.69608605     0.38500
O261        O  0.84897246  0.48969031  0.98688449    -0.81400
O262        O  0.78476540  0.61174043  0.94790005    -0.66100
O263        O  0.84625768  0.56110235  0.97555148    -1.12700
C264        C  0.81018800  0.56963522  0.11920126     1.05500
O265        O  0.81197254  0.65826313  0.00203605    -0.79300
O266        O  0.87837279  0.65626507  0.04296095    -0.66900
Ni267      Ni  0.83409121  0.51370122  0.94111449     1.34900
C268        C  0.89949203  0.63946521  0.04985546     0.84200
O269        O  0.83270354  0.59398823  0.90164192    -0.79900
O270        O  0.81897587  0.53067395  0.88878203    -0.90100
C271        C  0.79186803  0.64491199  0.96591732     0.83800
O272        O  0.77537774  0.48280285  0.96033484    -0.68300
O273        O  0.81938104  0.60550170  0.10618771    -0.87600
C274        C  0.74817480  0.49291697  0.95537704     0.84600
C275        C  0.82554827  0.56527704  0.87559173     1.06200
H276        H  0.76783712  0.55978701  0.02317993     0.38000
O277        O  0.79890655  0.57894265  0.02000764    -1.10300
O278        O  0.88097978  0.59969590  0.05197884    -0.66900
Ni279      Ni  0.82576847  0.55032989  0.03488892     1.26300
O280        O  0.75989360  0.53105983  0.94844494    -0.67200
O281        O  0.80486347  0.54129038  0.09317332    -0.79500
C282        C  0.85502435  0.49421097  0.02758669     0.84000
O283        O  0.85100099  0.52002477  0.04935750    -0.66600
Ni284      Ni  0.81653683  0.62936285  0.05182824     1.27400
Ni285      Ni  0.81488548  0.58572746  0.96054169     1.26100
H286        H  0.87701014  0.58234741  0.97400362     0.38500
O287        O  0.86985823  0.50811442  0.48963407    -0.81400
O288        O  0.78415726  0.61006206  0.44502034    -0.66100
O289        O  0.85565859  0.57182729  0.47777409    -1.12700
C290        C  0.80616871  0.56814396  0.61811622     1.05500
O291        O  0.79996281  0.65222846  0.50207628    -0.79300
O292        O  0.86975562  0.65932918  0.54420358    -0.66900
Ni293      Ni  0.85161742  0.52802629  0.44296781     1.34900
C294        C  0.89436931  0.64730405  0.55508086     0.84200
O295        O  0.84139628  0.60220041  0.40230854    -0.79900
O296        O  0.83434726  0.54170248  0.38987146    -0.90100
C297        C  0.78403277  0.63937658  0.46427626     0.83800
O298        O  0.79246420  0.49117999  0.46006533    -0.68300
O299        O  0.81253473  0.60313863  0.60594839    -0.87600
C300        C  0.76204249  0.49673299  0.45315154     0.84600
C301        C  0.83741534  0.57463024  0.37634132     1.06200
H302        H  0.76778476  0.55704657  0.51913100     0.38000
O303        O  0.79859352  0.57909909  0.51824229    -1.10300
O304        O  0.88038961  0.60839031  0.55721994    -0.66900
Ni305      Ni  0.83052698  0.55632502  0.53528410     1.26300
O306        O  0.76960179  0.53322478  0.44497432    -0.67200
O307        O  0.80442017  0.54193580  0.59139168    -0.79500
C308        C  0.87213757  0.51103693  0.53069364     0.84000
O309        O  0.86120136  0.53205342  0.55208817    -0.66600
Ni310      Ni  0.80748217  0.62564766  0.55155589     1.27400
Ni311      Ni  0.81942759  0.59026142  0.46011749     1.26100
H312        H  0.88575836  0.59564536  0.47859659     0.38500
C313        C  0.82317158  0.57176600  0.82863916    -0.05800
C314        C  0.83341356  0.61100799  0.81340499    -0.05700
C315        C  0.83024974  0.61730658  0.76945740    -0.23900
C316        C  0.81702077  0.58458090  0.73975464     0.18400
C317        C  0.80673377  0.54499068  0.75447209     0.15600
C318        C  0.80970587  0.53875452  0.79883709    -0.18900
C319        C  0.79421201  0.51256199  0.72444567    -0.20700
C320        C  0.79297275  0.51966800  0.68016865    -0.13300
C321        C  0.80359076  0.55913673  0.66517528     0.03400
C322        C  0.81486358  0.59120384  0.69544990    -0.25400
H323        H  0.84388975  0.63700598  0.83551012     0.08500
H324        H  0.83844346  0.64791094  0.75866729     0.12100
H325        H  0.80154814  0.50827315  0.81006859     0.12000
H326        H  0.78617982  0.48197631  0.73509669     0.11800
H327        H  0.78426403  0.49440692  0.65760751     0.12300
H328        H  0.82342487  0.62189298  0.68447757     0.14300
C329        C  0.80802291  0.56187085  0.16661105    -0.05800
C330        C  0.79442061  0.52192931  0.18307534    -0.05700
C331        C  0.79651238  0.51604614  0.22757628    -0.23900
C332        C  0.81274412  0.55011490  0.25634386     0.18400
C333        C  0.82528279  0.58999965  0.24023523     0.15600
C334        C  0.82242065  0.59547445  0.19576503    -0.18900
C335        C  0.84152052  0.62417367  0.26869086    -0.20700
C336        C  0.84578171  0.61912988  0.31274181    -0.13300
C337        C  0.83395221  0.57982194  0.32927549     0.03400
C338        C  0.81723272  0.54526278  0.30077579    -0.25400
H339        H  0.78289440  0.49537835  0.16147414     0.08500
H340        H  0.78634619  0.48510311  0.23933984     0.12100
H341        H  0.83296214  0.62645173  0.18374575     0.12000
H342        H  0.85124087  0.65495082  0.25681742     0.11800
H343        H  0.85854600  0.64616565  0.33390565     0.12300
H344        H  0.80747991  0.51461108  0.31313919     0.14300
C345        C  0.88381245  0.48542487  0.55504472    -0.05800
C346        C  0.88914319  0.48974579  0.60027583    -0.05700
C347        C  0.88731922  0.45823431  0.62504579    -0.23900
C348        C  0.87945030  0.42167639  0.60500217     0.18400
C349        C  0.87781913  0.41878636  0.55928385     0.15600
C350        C  0.88103900  0.45111778  0.53456354    -0.18900
C351        C  0.86953649  0.38216122  0.53913823    -0.20700
C352        C  0.86000598  0.34758758  0.56406680    -0.13300
C353        C  0.85888768  0.34912388  0.60961004     0.03400
C354        C  0.87033368  0.38694117  0.62990378    -0.25400
H355        H  0.89190779  0.51616963  0.61682118     0.08500
H356        H  0.88929485  0.46126621  0.66001920     0.12100
H357        H  0.87707712  0.44741782  0.49971399     0.12000
H358        H  0.86839918  0.37950962  0.50412324     0.11800
H359        H  0.85169338  0.31899936  0.54750678     0.12300
H360        H  0.87007406  0.38871113  0.66496486     0.14300
C361        C  0.86389200  0.46593245  0.05131235    -0.05800
C362        C  0.86897404  0.46924483  0.09661638    -0.05700
C363        C  0.86823104  0.43782930  0.12052435    -0.23900
C364        C  0.86229956  0.40236242  0.09968612     0.18400
C365        C  0.85976125  0.39979132  0.05400161     0.15600
C366        C  0.86111471  0.43181519  0.03004638    -0.18900
C367        C  0.85368248  0.36418493  0.03325734    -0.20700
C368        C  0.84829903  0.33067983  0.05760474    -0.13300
C369        C  0.84903343  0.33211472  0.10323937     0.03400
C370        C  0.85709346  0.36870620  0.12393308    -0.25400
H371        H  0.87146748  0.49518398  0.11395830     0.08500
H372        H  0.87058630  0.44050046  0.15551156     0.12100
H373        H  0.85730641  0.42875778  0.99515893     0.12000
H374        H  0.85174828  0.36165541  0.99824301     0.11800
H375        H  0.84214717  0.30302853  0.04062747     0.12300
H376        H  0.85783334  0.37048771  0.15901148     0.14300
C377        C  0.79578436  0.20548474  0.84156026    -0.05800
C378        C  0.78457871  0.22899446  0.86665959    -0.05700
C379        C  0.77987296  0.22404886  0.91160095    -0.23900
C380        C  0.78647535  0.19562830  0.93263867     0.18400
C381        C  0.79688097  0.17113076  0.90789779     0.15600
C382        C  0.80119034  0.17597188  0.86253551    -0.18900
C383        C  0.80369646  0.14287208  0.92908749    -0.20700
C384        C  0.80143297  0.13979219  0.97429970    -0.13300
C385        C  0.79198532  0.16468175  0.99939477     0.03400
C386        C  0.78384942  0.19210706  0.97806864    -0.25400
H387        H  0.77966317  0.25160533  0.85158119     0.08500
H388        H  0.77168157  0.24295778  0.92997422     0.12100
H389        H  0.80941861  0.15729495  0.84375198     0.12000
H390        H  0.81161503  0.12372817  0.91077039     0.11800
H391        H  0.80792464  0.11835687  0.98962537     0.12300
H392        H  0.77656543  0.21152581  0.99679183     0.14300
C393        C  0.80789997  0.19281827  0.33768553    -0.05800
C394        C  0.82263400  0.16822063  0.35343234    -0.05700
C395        C  0.82147607  0.15986149  0.39774363    -0.23900
C396        C  0.80520846  0.17557962  0.42760625     0.18400
C397        C  0.78986877  0.19997063  0.41236181     0.15600
C398        C  0.79152311  0.20866049  0.36762071    -0.18900
C399        C  0.77330775  0.21541562  0.44222392    -0.20700
C400        C  0.77318397  0.20797670  0.48666660    -0.13300
C401        C  0.78933632  0.18464541  0.50253288     0.03400
C402        C  0.80462967  0.16784984  0.47244954    -0.25400
H403        H  0.83534141  0.15542589  0.33136693     0.08500
H404        H  0.83337478  0.14108186  0.40863920     0.12100
H405        H  0.77957686  0.22722867  0.35611692     0.12000
H406        H  0.76101581  0.23384418  0.43128248     0.11800
H407        H  0.76089340  0.22111158  0.50879619     0.12300
H408        H  0.81734111  0.14993528  0.48394959     0.14300
C409        C  0.55681091  0.17489375  0.79682071    -0.05800
C410        C  0.57619490  0.16192435  0.82597290    -0.05700
C411        C  0.60985760  0.15785939  0.81258855    -0.23900
C412        C  0.62592314  0.16818963  0.77005673     0.18400
C413        C  0.60596039  0.18021772  0.73991079     0.15600
C414        C  0.57067171  0.18251274  0.75324783    -0.18900
C415        C  0.62371701  0.19259783  0.69797903    -0.20700
C416        C  0.66267590  0.19625022  0.68728806    -0.13300
C417        C  0.68337288  0.18573150  0.71762762     0.03400
C418        C  0.66370034  0.16985247  0.75827781    -0.25400
H419        H  0.56584733  0.15584182  0.85960516     0.08500
H420        H  0.62478417  0.14868137  0.83611880     0.12100
H421        H  0.55623499  0.19311617  0.73074848     0.12000
H422        H  0.60902053  0.20194532  0.67436645     0.11800
H423        H  0.67769067  0.20897948  0.65594839     0.12300
H424        H  0.68016370  0.16273818  0.78218740     0.14300
C425        C  0.55789449  0.32881556  0.90519769    -0.05800
C426        C  0.56763081  0.36161847  0.87658495    -0.05700
C427        C  0.60489683  0.40257900  0.88298414    -0.23900
C428        C  0.63272470  0.41136215  0.91829814     0.18400
C429        C  0.62137188  0.37890336  0.94850224     0.15600
C430        C  0.58421683  0.33817875  0.94182256    -0.18900
C431        C  0.64860643  0.38692410  0.98378636    -0.20700
C432        C  0.68840171  0.42572579  0.98751241    -0.13300
C433        C  0.70159196  0.45761445  0.95650245     0.03400
C434        C  0.67280822  0.45098059  0.92276271    -0.25400
H435        H  0.54762256  0.35515270  0.84826648     0.08500
H436        H  0.61273961  0.42696915  0.85954574     0.12100
H437        H  0.57654143  0.31321845  0.96449008     0.12000
H438        H  0.64017357  0.36245104  0.00735662     0.11800
H439        H  0.71010594  0.43016329  0.01361992     0.12300
H440        H  0.68302743  0.47518255  0.89833374     0.14300
C441        C  0.68479931  0.17596282  0.21700578    -0.05800
C442        C  0.66691492  0.19038139  0.18757178    -0.05700
C443        C  0.62928433  0.18920100  0.19822019    -0.23900
C444        C  0.61002121  0.17540276  0.23937111     0.18400
C445        C  0.62689160  0.15940112  0.26858842     0.15600
C446        C  0.66336378  0.15864524  0.25670947    -0.18900
C447        C  0.60935664  0.14773101  0.31053907    -0.20700
C448        C  0.57775877  0.15465973  0.32445029    -0.13300
C449        C  0.56182453  0.17189971  0.29630700     0.03400
C450        C  0.57659964  0.18041623  0.25305480    -0.25400
H451        H  0.68338040  0.20448842  0.15709599     0.08500
H452        H  0.61703388  0.20169937  0.17538678     0.12100
H453        H  0.67770245  0.14864444  0.28007310     0.12000
H454        H  0.62178591  0.13541147  0.33338012     0.11800
H455        H  0.56647285  0.14753835  0.35776622     0.12300
H456        H  0.56467789  0.19402202  0.23125250     0.14300
C457        C  0.56904719  0.33084149  0.40806120    -0.05800
C458        C  0.57542349  0.36511667  0.38404043    -0.05700
C459        C  0.61305490  0.40591162  0.39019504    -0.23900
C460        C  0.64469691  0.41311410  0.42074815     0.18400
C461        C  0.63698256  0.37909918  0.44672410     0.15600
C462        C  0.59941076  0.33853622  0.44033515    -0.18900
C463        C  0.66789208  0.38562351  0.47746598    -0.20700
C464        C  0.70741546  0.42474206  0.48066042    -0.13300
C465        C  0.71684386  0.45845446  0.45361647     0.03400
C466        C  0.68463757  0.45296673  0.42462861    -0.25400
H467        H  0.55232715  0.36005023  0.35923809     0.08500
H468        H  0.61803446  0.43152984  0.37015841     0.12100
H469        H  0.59443935  0.31250956  0.45971720     0.12000
H470        H  0.66222371  0.35998744  0.49796337     0.11800
H471        H  0.73139877  0.42830821  0.50358043     0.12300
H472        H  0.69161871  0.47870289  0.40351121     0.14300
C473        C  0.44866628  0.21265159  0.67154451    -0.05800
C474        C  0.48903188  0.22100289  0.65715036    -0.05700
C475        C  0.49692956  0.21995323  0.61316289    -0.23900
C476        C  0.46455403  0.21040998  0.58291588     0.18400
C477        C  0.42424554  0.20289088  0.59693128     0.15600
C478        C  0.41660123  0.20415124  0.64114018    -0.18900
C479        C  0.39215777  0.19401271  0.56649089    -0.20700
C480        C  0.40004627  0.19279718  0.52243989    -0.13300
C481        C  0.43980484  0.19972670  0.50843022     0.03400
C482        C  0.47189669  0.20840332  0.53883973    -0.25400
H483        H  0.51444876  0.22793600  0.67992423     0.08500
H484        H  0.52814454  0.22618570  0.60286170     0.12100
H485        H  0.38538763  0.19768166  0.65183710     0.12000
H486        H  0.36115963  0.18832431  0.57671088     0.11800
H487        H  0.37513411  0.18649634  0.49929296     0.12300
H488        H  0.50307470  0.21476591  0.52809375     0.14300
C489        C  0.45818018  0.21673523  0.17102408    -0.05800
C490        C  0.49380178  0.21692836  0.15439221    -0.05700
C491        C  0.49706514  0.21197541  0.11005781    -0.23900
C492        C  0.46479219  0.20683324  0.08184419     0.18400
C493        C  0.42914916  0.20708133  0.09822840     0.15600
C494        C  0.42614251  0.21210293  0.14258338    -0.18900
C495        C  0.39713608  0.20247339  0.06998034    -0.20700
C496        C  0.40103108  0.19876772  0.02551765    -0.13300
C497        C  0.43654554  0.19886356  0.00897497     0.03400
C498        C  0.46795129  0.20219300  0.03740351    -0.25400
H499        H  0.51876905  0.22022483  0.17567323     0.08500
H500        H  0.52468354  0.21200621  0.09787471     0.12100
H501        H  0.39844198  0.21187724  0.15490525     0.12000
H502        H  0.36955621  0.20249265  0.08218500     0.11800
H503        H  0.37660959  0.19631143  0.00402430     0.12300
H504        H  0.49587280  0.20294194  0.02480056     0.14300
C505        C  0.08077617  0.29952631  0.54536304    -0.05800
C506        C  0.05651505  0.25675892  0.53339374    -0.05700
C507        C  0.01319696  0.22935165  0.54783314    -0.23900
C508        C  0.99367580  0.24426141  0.57472780     0.18400
C509        C  0.01840245  0.28707170  0.58742370     0.15600
C510        C  0.06135857  0.31413712  0.57274907    -0.18900
C511        C  0.99965217  0.30263304  0.61401913    -0.20700
C512        C  0.95602986  0.27658698  0.62640552    -0.13300
C513        C  0.93034393  0.23425466  0.61305679     0.03400
C514        C  0.94966894  0.21777685  0.58814423    -0.25400
H515        H  0.07086307  0.24466048  0.51262580     0.08500
H516        H  0.99488914  0.19664958  0.53770664     0.12100
H517        H  0.07982809  0.34684696  0.58301804     0.12000
H518        H  0.01837187  0.33534631  0.62420262     0.11800
H519        H  0.94190695  0.28992267  0.64562516     0.12300
H520        H  0.92997694  0.18528981  0.57730465     0.14300
C521        C  0.35383790  0.26320957  0.38754783    -0.05800
C522        C  0.35310520  0.26678728  0.43277845    -0.05700
C523        C  0.32892470  0.28064955  0.45206522    -0.23900
C524        C  0.30609653  0.29231267  0.42633868     0.18400
C525        C  0.30709057  0.28942087  0.38070144     0.15600
C526        C  0.33020807  0.27402361  0.36164861    -0.18900
C527        C  0.28584379  0.30295313  0.35497063    -0.20700
C528        C  0.26457741  0.31997579  0.37429865    -0.13300
C529        C  0.26296068  0.32225550  0.41957243     0.03400
C530        C  0.28319736  0.30780945  0.44545949    -0.25400
H531        H  0.37087084  0.25835672  0.45325367     0.08500
H532        H  0.32865179  0.28289165  0.48706606     0.12100
H533        H  0.33096789  0.27170132  0.32666568     0.12000
H534        H  0.28643544  0.30116414  0.31994903     0.11800
H535        H  0.24907450  0.33104665  0.35398184     0.12300
H536        H  0.28248472  0.31015699  0.48045557     0.14300
C537        C  0.19263703  0.41634591  0.80752851    -0.05800
C538        C  0.17322431  0.43322930  0.78373386    -0.05700
C539        C  0.17326393  0.43289992  0.73856556    -0.23900
C540        C  0.19272069  0.41569163  0.71599962     0.18400
C541        C  0.21044638  0.39673182  0.73932388     0.15600
C542        C  0.21013190  0.39697650  0.78494911    -0.18900
C543        C  0.22916390  0.37880647  0.71654981    -0.20700
C544        C  0.23077851  0.38013201  0.67130525    -0.13300
C545        C  0.21415130  0.39978234  0.64789728     0.03400
C546        C  0.19499034  0.41742248  0.67051673    -0.25400
H547        H  0.15901487  0.44801155  0.80002102     0.08500
H548        H  0.15897938  0.44703583  0.72130458     0.12100
H549        H  0.22508319  0.38373945  0.80268382     0.12000
H550        H  0.24263147  0.36384532  0.73369105     0.11800
H551        H  0.24512638  0.36571991  0.65449729     0.12300
H552        H  0.18099604  0.43157766  0.65273488     0.14300
C553        C  0.20064391  0.41314480  0.14742465    -0.05800
C554        C  0.20648786  0.45050881  0.16355459    -0.05700
C555        C  0.20104693  0.45495717  0.20765728    -0.23900
C556        C  0.18957060  0.42214720  0.23676299     0.18400
C557        C  0.18340894  0.38435913  0.22114138     0.15600
C558        C  0.18879993  0.38002219  0.17665017    -0.18900
C559        C  0.17257306  0.35178687  0.25043969    -0.20700
C560        C  0.16925429  0.35711785  0.29485932    -0.13300
C561        C  0.17556871  0.39465613  0.31074740     0.03400
C562        C  0.18509363  0.42685554  0.28133729    -0.25400
H563        H  0.21509334  0.47644225  0.14200397     0.08500
H564        H  0.20595572  0.48417290  0.21901120     0.12100
H565        H  0.18379051  0.35087923  0.16487928     0.12000
H566        H  0.16771136  0.32258017  0.23914050     0.11800
H567        H  0.16241533  0.33211397  0.31699475     0.12300
H568        H  0.19114364  0.45634950  0.29339955     0.14300
C569        C  0.07642863  0.32144975  0.03453800    -0.05800
C570        C  0.05236652  0.33969015  0.03170167    -0.05700
C571        C  0.00996966  0.31881922  0.04815537    -0.23900
C572        C  0.99065913  0.27921846  0.06788074     0.18400
C573        C  0.01369999  0.25967605  0.06989018     0.15600
C574        C  0.05648753  0.28083596  0.05293765    -0.18900
C575        C  0.99365708  0.21971725  0.08943959    -0.20700
C576        C  0.95101225  0.19919043  0.10618768    -0.13300
C577        C  0.92784809  0.21847202  0.10412767     0.03400
C578        C  0.94847145  0.25889252  0.08535957    -0.25400
H579        H  0.06684962  0.37081787  0.01779007     0.08500
H580        H  0.99251893  0.33403065  0.04609307     0.12100
H581        H  0.07483241  0.26657842  0.05583833     0.12000
H582        H  0.01074925  0.20414843  0.09134405     0.11800
H583        H  0.93593692  0.16798769  0.12006864     0.12300
H584        H  0.93127314  0.27436359  0.08321938     0.14300
C585        C  0.25186542  0.31537651  0.92863028    -0.05800
C586        C  0.22423382  0.27159267  0.92198664    -0.05700
C587        C  0.24103279  0.24879115  0.90624396    -0.23900
C588        C  0.28606373  0.26913781  0.89840429     0.18400
C589        C  0.31402864  0.31308828  0.90571720     0.15600
C590        C  0.29665841  0.33596856  0.91962052    -0.18900
C591        C  0.35916502  0.33340137  0.90013526    -0.20700
C592        C  0.37667429  0.31051700  0.88794031    -0.13300
C593        C  0.34950354  0.26703154  0.87967750     0.03400
C594        C  0.30389639  0.24644535  0.88435765    -0.25400
H595        H  0.18960171  0.25509384  0.92876120     0.08500
H596        H  0.21895953  0.21512609  0.90112927     0.12100
H597        H  0.31830034  0.36963446  0.92524724     0.12000
H598        H  0.38108147  0.36699232  0.90583858     0.11800
H599        H  0.41174451  0.32709231  0.88417902     0.12300
H600        H  0.28261700  0.21284359  0.87829952     0.14300
C601        C  0.70342969  0.90435505  0.77740368    -0.05800
C602        C  0.74341140  0.92115732  0.75546111    -0.05700
C603        C  0.76698837  0.96277129  0.73975663    -0.23900
C604        C  0.75119034  0.98843544  0.74612143     0.18400
C605        C  0.71259815  0.97259580  0.77074832     0.15600
C606        C  0.68892940  0.93079258  0.78585905    -0.18900
C607        C  0.69722521  0.99823896  0.77853251    -0.20700
C608        C  0.71841980  0.03840043  0.76026865    -0.13300
C609        C  0.75515054  0.05373623  0.73322469     0.03400
C610        C  0.77217102  0.02892309  0.72714997    -0.25400
H611        H  0.75525652  0.90141778  0.74841220     0.08500
H612        H  0.79679482  0.97439200  0.72148101     0.12100
H613        H  0.65835578  0.91834507  0.80305586     0.12000
H614        H  0.66804426  0.98680054  0.79784294     0.11800
H615        H  0.70477021  0.05681813  0.76595111     0.12300
H616        H  0.80090727  0.04061176  0.70702040     0.14300
C617        C  0.77636019  0.66872331  0.94363621    -0.05800
C618        C  0.77890308  0.67247893  0.89822178    -0.05700
C619        C  0.76119685  0.69170215  0.87634792    -0.23900
C620        C  0.73944444  0.70659406  0.89932734     0.18400
C621        C  0.73661603  0.70300596  0.94502786     0.15600
C622        C  0.75588099  0.68491179  0.96696340    -0.18900
C623        C  0.71339243  0.71640979  0.96783171    -0.20700
C624        C  0.69250899  0.73239476  0.94564553    -0.13300
C625        C  0.69533440  0.73645565  0.90025999     0.03400
C626        C  0.71950513  0.72397542  0.87734097    -0.25400
H627        H  0.79447049  0.66025514  0.87956360     0.08500
H628        H  0.76361541  0.69399896  0.84132367     0.12100
H629        H  0.75315521  0.68162127  0.00193282     0.12000
H630        H  0.71065177  0.71378042  0.00282535     0.11800
H631        H  0.67422293  0.74181930  0.96404508     0.12300
H632        H  0.72144780  0.72638120  0.84228891     0.14300
C633        C  0.33856354  0.52362686  0.91676407    -0.05800
C634        C  0.36772675  0.53504049  0.95130385    -0.05700
C635        C  0.41037198  0.57133510  0.94833941    -0.23900
C636        C  0.42434273  0.59633368  0.91062697     0.18400
C637        C  0.39576549  0.58312313  0.87485843     0.15600
C638        C  0.35328997  0.54696808  0.87819107    -0.18900
C639        C  0.40901354  0.60770238  0.83716286    -0.20700
C640        C  0.44898102  0.64658759  0.83583137    -0.13300
C641        C  0.47674226  0.66123518  0.87178297     0.03400
C642        C  0.46509497  0.63543070  0.90873982    -0.25400
H643        H  0.35671401  0.51744122  0.98141927     0.08500
H644        H  0.43173653  0.58076509  0.97608362     0.12100
H645        H  0.33078420  0.53811398  0.85147572     0.12000
H646        H  0.38751325  0.59785798  0.80947984     0.11800
H647        H  0.45737995  0.66634519  0.80738064     0.12300
H648        H  0.48606505  0.64713416  0.93693552     0.14300
C649        C  0.69251894  0.88770476  0.27477493    -0.05800
C650        C  0.73055830  0.90228832  0.25014957    -0.05700
C651        C  0.75459427  0.94344347  0.23352448    -0.23900
C652        C  0.74124531  0.97080798  0.24173166     0.18400
C653        C  0.70456242  0.95711823  0.26873117     0.15600
C654        C  0.68041728  0.91573948  0.28488158    -0.18900
C655        C  0.69161991  0.98451750  0.27791350    -0.30300
C656        C  0.71376446  0.02461532  0.25928866    -0.13300
C657        C  0.74909200  0.03808739  0.23072896     0.03400
C658        C  0.76310575  0.01111694  0.22257018    -0.25400
H659        H  0.74035905  0.88115763  0.24175842     0.08500
H660        H  0.78285290  0.95344290  0.21324605     0.12100
H661        H  0.65127728  0.90485522  0.30412294     0.12000
H662        H  0.66379269  0.97463582  0.29883277     0.11800
H663        H  0.70227019  0.04465314  0.26630715     0.12300
H664        H  0.79046203  0.02116304  0.20089099     0.14300
C665        C  0.76468061  0.65938400  0.44197817    -0.05800
C666        C  0.76414851  0.66058683  0.39648322    -0.05700
C667        C  0.74457242  0.67819920  0.37527105    -0.23900
C668        C  0.72421963  0.69394098  0.39919534     0.18400
C669        C  0.72386743  0.69220717  0.44497782     0.15600
C670        C  0.74486981  0.67573139  0.46607104    -0.18900
C671        C  0.70167371  0.70611616  0.46880588    -0.20700
C672        C  0.67976851  0.72132262  0.44744516    -0.13300
C673        C  0.68089169  0.72406575  0.40204234     0.03400
C674        C  0.70349277  0.71064346  0.37809777    -0.25400
H675        H  0.77912213  0.64807653  0.37729761     0.08500
H676        H  0.74478996  0.67893854  0.34015903     0.12100
H677        H  0.74450643  0.67430380  0.50117611     0.12000
H678        H  0.70073586  0.70467229  0.50389555     0.11800
H679        H  0.66236200  0.73141530  0.46637664     0.12300
H680        H  0.70377044  0.71201507  0.34298130     0.14300
C681        C  0.46374541  0.64910447  0.38277523    -0.05800
C682        C  0.46661402  0.62173050  0.41081480    -0.05700
C683        C  0.42932363  0.58163542  0.42065487    -0.23900
C684        C  0.38867827  0.56847876  0.40268095     0.18400
C685        C  0.38662927  0.59487896  0.37210384     0.15600
C686        C  0.42397763  0.63451874  0.36214871    -0.18900
C687        C  0.34674182  0.58244060  0.35357198    -0.20700
C688        C  0.30856387  0.54562093  0.36731773    -0.13300
C689        C  0.30927774  0.52014037  0.39972155     0.03400
C690        C  0.34977418  0.53069399  0.41607554    -0.25400
H691        H  0.49699845  0.63222459  0.42703473     0.08500
H692        H  0.43188633  0.56179503  0.44375375     0.12100
H693        H  0.42148482  0.65508319  0.33996967     0.12000
H694        H  0.34480091  0.60202393  0.32957984     0.11800
H695        H  0.27802818  0.53752270  0.35310480     0.12300
H696        H  0.35075963  0.51096408  0.44060066     0.14300
C697        C  0.57024606  0.77408743  0.50687677    -0.05800
C698        C  0.54080843  0.77820477  0.53199404    -0.05700
C699        C  0.54221376  0.77826115  0.57731867    -0.23900
C700        C  0.57310726  0.77421265  0.59872137     0.18400
C701        C  0.60315498  0.77046235  0.57400601     0.15600
C702        C  0.60151896  0.77033925  0.52836335    -0.18900
C703        C  0.63446861  0.76705544  0.59540284    -0.20700
C704        C  0.63620775  0.76759829  0.64073302    -0.13300
C705        C  0.60636841  0.77108421  0.66588421     0.03400
C706        C  0.57465646  0.77418262  0.64437119    -0.25400
H707        H  0.51650829  0.78140731  0.51658639     0.08500
H708        H  0.51908254  0.78147635  0.59563798     0.12100
H709        H  0.62441658  0.76706778  0.50965192     0.12000
H710        H  0.65787429  0.76426540  0.57706567     0.11800
H711        H  0.66111885  0.76532379  0.65612097     0.12300
H712        H  0.55165499  0.77731723  0.66306431     0.14300
C713        C  0.59328075  0.75343957  0.16666041    -0.05800
C714        C  0.61993110  0.74469708  0.14257373    -0.05700
C715        C  0.62136942  0.74688106  0.09720510    -0.23900
C716        C  0.59655375  0.75831750  0.07470298     0.18400
C717        C  0.56901858  0.76638981  0.09838945     0.15600
C718        C  0.56735088  0.76369202  0.14401949    -0.18900
C719        C  0.54414970  0.77779516  0.07606782    -0.20700
C720        C  0.54672225  0.78151697  0.03090590    -0.13300
C721        C  0.57448134  0.77427890  0.00674447     0.03400
C722        C  0.59919450  0.76234544  0.02906570    -0.25400
H723        H  0.64033811  0.73674256  0.15887375     0.08500
H724        H  0.64254009  0.74035386  0.07976277     0.12100
H725        H  0.54693147  0.77092832  0.16189340     0.12000
H726        H  0.52282021  0.78408948  0.09356287     0.11800
H727        H  0.52709343  0.79054865  0.01484399     0.12300
H728        H  0.62021708  0.75601178  0.01100969     0.14300
C729        C  0.09557790  0.74771787  0.62342059    -0.05800
C730        C  0.07344470  0.70408143  0.63080640    -0.05700
C731        C  0.02987394  0.67664346  0.61949625    -0.23900
C732        C  0.00724964  0.69211431  0.60037382     0.18400
C733        C  0.02822559  0.73595288  0.59374779     0.15600
C734        C  0.07251034  0.76376483  0.60556154    -0.18900
C735        C  0.00459733  0.75071154  0.57465195    -0.20700
C736        C  0.96097796  0.72225360  0.56199142    -0.13300
C737        C  0.94042736  0.67855028  0.56781753     0.03400
C738        C  0.96400057  0.66401926  0.58739891    -0.25400
H739        H  0.09029808  0.69089092  0.64456048     0.08500
H740        H  0.01409502  0.64311522  0.62496875     0.12100
H741        H  0.08934350  0.79727148  0.59919684     0.12000
H742        H  0.01986823  0.78417005  0.56934244     0.11800
H743        H  0.94348943  0.73438751  0.54737766     0.12300
H744        H  0.94867324  0.63052610  0.59277958     0.14300
C745        C  0.27044511  0.93003531  0.74478135    -0.05800
C746        C  0.30472755  0.94253218  0.77412701    -0.05700
C747        C  0.32813018  0.98299812  0.79194532    -0.23900
C748        C  0.31765310  0.01189971  0.78109077     0.18400
C749        C  0.28127896  0.99886270  0.75423427     0.15600
C750        C  0.25786234  0.95800719  0.73621040    -0.18900
C751        C  0.27032895  0.02764882  0.74422436    -0.20700
C752        C  0.29656600  0.06946995  0.75851676    -0.13300
C753        C  0.33446507  0.08348379  0.78283905     0.03400
C754        C  0.34413260  0.05410030  0.79500173    -0.25400
H755        H  0.31497971  0.92166705  0.78184858     0.08500
H756        H  0.35546130  0.99216100  0.81298857     0.12100
H757        H  0.23113299  0.94869320  0.71422858     0.12000
H758        H  0.24237012  0.01824789  0.72405407     0.11800
H759        H  0.28841304  0.09144756  0.74857335     0.12300
H760        H  0.37303488  0.06440452  0.81404198     0.14300
C761        C  0.34891807  0.80868572  0.73397186    -0.05800
C762        C  0.36662585  0.83386216  0.77124103    -0.05700
C763        C  0.40597434  0.84294843  0.78868519    -0.23900
C764        C  0.42879420  0.82762195  0.76875863     0.18400
C765        C  0.41295647  0.80490009  0.72953987     0.15600
C766        C  0.37282464  0.79503370  0.71275606    -0.18900
C767        C  0.43648953  0.79067302  0.70894883    -0.20700
C768        C  0.47360092  0.79628722  0.72845667    -0.13300
C769        C  0.48743683  0.81551629  0.76931681     0.03400
C770        C  0.46570733  0.83251707  0.78854705    -0.25400
H771        H  0.34858904  0.84424606  0.78851278     0.08500
H772        H  0.41772870  0.86067987  0.81861577     0.12100
H773        H  0.35939018  0.77545821  0.68410697     0.12000
H774        H  0.42516169  0.77363583  0.67859940     0.11800
H775        H  0.48947781  0.78268171  0.71310017     0.12300
H776        H  0.47613195  0.84754794  0.82000637     0.14300
C777        C  0.18971891  0.64603782  0.60322663    -0.05800
C778        C  0.18574038  0.64675478  0.55796737    -0.05700
C779        C  0.17989365  0.61373489  0.53220691    -0.23900
C780        C  0.17750620  0.57910152  0.55117456     0.18400
C781        C  0.17960530  0.57714452  0.59672459     0.15600
C782        C  0.18589096  0.61058956  0.62236434    -0.18900
C783        C  0.17623792  0.54212457  0.61583278    -0.20700
C784        C  0.17240816  0.51005982  0.59004006    -0.13300
C785        C  0.17230086  0.51247002  0.54453325     0.03400
C786        C  0.17405591  0.54690083  0.52537373    -0.25400
H787        H  0.18831550  0.67341593  0.54228776     0.08500
H788        H  0.17793906  0.61562826  0.49735251     0.12100
H789        H  0.18834121  0.60918964  0.65723188     0.12000
H790        H  0.17738217  0.53988580  0.65074568     0.11800
H791        H  0.17100526  0.48400911  0.60579316     0.12300
H792        H  0.17359452  0.54909469  0.49038611     0.14300
C793        C  0.94734604  0.66574281  0.05690303    -0.05800
C794        C  0.97191048  0.64980052  0.04341060    -0.05700
C795        C  0.01559675  0.66986050  0.05487150    -0.23900
C796        C  0.03571943  0.70618177  0.08053995     0.18400
C797        C  0.01207887  0.72349126  0.09357013     0.15600
C798        C  0.96789759  0.70329258  0.08133231    -0.18900
C799        C  0.03297560  0.76011807  0.11924632    -0.20700
C800        C  0.07668261  0.77922958  0.13173450    -0.13300
C801        C  0.10007848  0.76172135  0.11927612     0.03400
C802        C  0.07910797  0.72513810  0.09354421    -0.25400
H803        H  0.95687677  0.62099301  0.02463554     0.08500
H804        H  0.03339068  0.65637806  0.04441231     0.12100
H805        H  0.94912148  0.71554679  0.09241164     0.12000
H806        H  0.01556848  0.77400756  0.12960681     0.11800
H807        H  0.09215302  0.80765265  0.15113036     0.12300
H808        H  0.09680177  0.71159363  0.08287976     0.14300
C809        C  0.28518291  0.94041805  0.23593067    -0.05800
C810        C  0.32409103  0.95475033  0.25849057    -0.05700
C811        C  0.34899438  0.99563827  0.27518644    -0.23900
C812        C  0.33509088  0.02286241  0.27046955     0.18400
C813        C  0.29509363  0.00836380  0.24957289     0.15600
C814        C  0.27066398  0.96741460  0.23182873    -0.18900
C815        C  0.28074304  0.03541697  0.24615608    -0.20700
C816        C  0.30656386  0.07688380  0.26168642    -0.13300
C817        C  0.34754053  0.09230766  0.28031475     0.03400
C818        C  0.36110387  0.06466053  0.28536629    -0.25400
H819        H  0.33616095  0.93474920  0.26192691     0.08500
H820        H  0.37945115  0.00614150  0.29131023     0.12100
H821        H  0.24062470  0.95667711  0.21470637     0.12000
H822        H  0.24998451  0.02480636  0.23065229     0.11800
H823        H  0.29536795  0.09748757  0.25722021     0.12300
H824        H  0.39248213  0.07598934  0.29991675     0.14300
C825        C  0.47930869  0.80498133  0.26665417    -0.05800
C826        C  0.46314106  0.78280691  0.22756277    -0.05700
C827        C  0.42806052  0.78010039  0.20689463    -0.23900
C828        C  0.40900679  0.80001231  0.22474799     0.18400
C829        C  0.42745120  0.82533968  0.26214210     0.15600
C830        C  0.46241316  0.82750343  0.28302016    -0.18900
C831        C  0.40872550  0.84572375  0.27956703    -0.20700
C832        C  0.37026512  0.83858484  0.26204907    -0.13300
C833        C  0.34972329  0.81071963  0.22703065     0.03400
C834        C  0.37023099  0.79279096  0.20751740    -0.25400
H835        H  0.47553412  0.76498879  0.21469865     0.08500
H836        H  0.41453843  0.76080360  0.17809939     0.12100
H837        H  0.47489548  0.84473106  0.31318823     0.12000
H838        H  0.42259757  0.86553539  0.30799318     0.11800
H839        H  0.35493851  0.85251661  0.27789604     0.12300
H840        H  0.35469161  0.77133609  0.18046936     0.14300
C841        C  0.19312472  0.53975444  0.02302238    -0.05800
C842        C  0.20879567  0.57629055  0.99779675    -0.05700
C843        C  0.20681528  0.60957037  0.01304203    -0.23900
C844        C  0.18958011  0.60739515  0.05415320     0.18400
C845        C  0.17259175  0.57043084  0.07950567     0.15600
C846        C  0.17403758  0.53661463  0.06362447    -0.18900
C847        C  0.15627045  0.56876983  0.12106989    -0.20700
C848        C  0.15954596  0.60426612  0.13834274    -0.13300
C849        C  0.17837756  0.64182269  0.11413755     0.03400
C850        C  0.19148059  0.64253814  0.07125957    -0.25400
H851        H  0.22322815  0.57949347  0.96616944     0.08500
H852        H  0.21994298  0.63753445  0.99312411     0.12100
H853        H  0.16185672  0.50871107  0.08342353     0.12000
H854        H  0.14292429  0.54078330  0.14099379     0.11800
H855        H  0.14914394  0.60303645  0.17153343     0.12300
H856        H  0.20651998  0.67149342  0.05259689     0.14300
C857        C  0.22712406  0.80613959  0.00516919    -0.05800
C858        C  0.22478366  0.83607989  0.98088962    -0.05700
C859        C  0.22185062  0.83372145  0.93563260    -0.23900
C860        C  0.22114840  0.80132456  0.91337311     0.18400
C861        C  0.22329892  0.77095244  0.93724440     0.15600
C862        C  0.22611944  0.77341944  0.98284576    -0.18900
C863        C  0.22290210  0.73871491  0.91506482    -0.20700
C864        C  0.22084730  0.73672625  0.86981407    -0.13300
C865        C  0.21878351  0.76670941  0.84542221     0.03400
C866        C  0.21874643  0.79898499  0.86770615    -0.25400
H867        H  0.22523666  0.86157488  0.99689818     0.08500
H868        H  0.22025080  0.85735842  0.91804696     0.12100
H869        H  0.22737836  0.74978892  0.00087854     0.12000
H870        H  0.22458936  0.71516133  0.93271358     0.11800
H871        H  0.22119651  0.71163687  0.85387897     0.12300
H872        H  0.21750012  0.82259346  0.84960732     0.14300
C873        C  0.22695354  0.77658023  0.34535898    -0.05800
C874        C  0.23210478  0.74800154  0.36889484    -0.05700
C875        C  0.23440334  0.74937978  0.41410460    -0.23900
C876        C  0.23173855  0.77945963  0.43718504     0.18400
C877        C  0.22641127  0.80832703  0.41423386     0.15600
C878        C  0.22387186  0.80665645  0.36851370    -0.18900
C879        C  0.22383644  0.83843073  0.43749885    -0.20700
C880        C  0.22615177  0.83972944  0.48284174    -0.13300
C881        C  0.23111760  0.81096889  0.50623056     0.03400
C882        C  0.23409914  0.78094435  0.48282828    -0.25400
H883        H  0.23450990  0.72434434  0.35233316     0.08500
H884        H  0.23840426  0.72690846  0.43101724     0.12100
H885        H  0.21994748  0.82893812  0.35107296     0.12000
H886        H  0.21981419  0.86090980  0.42064628     0.11800
H887        H  0.22361540  0.86319651  0.49964238     0.12300
H888        H  0.23764959  0.75832845  0.50007713     0.14300
loop_ 
_geom_bond_atom_site_label_1 
_geom_bond_atom_site_label_2 
_geom_bond_distance 
_geom_bond_site_symmetry_2 
_ccdc_geom_bond_type 
O1           Ni7   1.905       .  S
O1           C22   1.266       .  A
O2          Ni25   1.897       .  S
O2           C11   1.266       .  A
O3           Ni7   1.920       .  S
O3          Ni25   1.916       .  S
O3          Ni19   1.938       .  S
O3           H26   0.967       .  S
C4           O21   1.276       .  A
C4           O13   1.276       .  A
C4          C857   1.494       .  S
O5          Ni24   1.946       .  S
O5           C11   1.275       .  A
O6          Ni24   1.917       .  S
O6            C8   1.273       .  A
Ni7          O10   1.926       .  S
Ni7          O12   1.906       .  S
C8           O18   1.276       .  A
C8          C801   1.487       .  S
O9          Ni25   1.927       .  S
O9           C15   1.271       .  A
O10          C15   1.270       .  A
C11         C809   1.485       .  S
O12          C14   1.270       .  A
O13         Ni24   1.938       .  S
C14          O20   1.277       .  A
C14         C833   1.481       .  S
C15         C873   1.494       .  S
H16          O17   0.967       .  S
O17         Ni25   1.916       .  S
O17         Ni19   1.913       .  S
O17         Ni24   1.927       .  S
O18         Ni19   1.933       .  S
Ni19         O23   1.924       .  S
Ni19         O21   1.923       .  S
O20         Ni25   1.949       .  S
C22          O23   1.272       .  A
C22         C849   1.478       .  S
O27         Ni33   1.928       .  S
O27          C48   1.272       .  A
O28         Ni51   1.890       .  S
O28          C37   1.265       .  A
O29         Ni33   1.923       .  S
O29         Ni51   1.917       .  S
O29         Ni45   1.937       .  S
O29          H52   0.966       .  S
C30          O47   1.277       .  A
C30          O39   1.279       .  A
C30         C881   1.497       .  S
O31         Ni50   1.956       .  S
O31          C37   1.278       .  A
O32         Ni50   1.927       .  S
O32          C34   1.273       .  A
Ni33         O36   1.935       .  S
Ni33         O38   1.907       .  S
C34          O44   1.271       .  A
C34         C729   1.483       .  S
O35         Ni51   1.915       .  S
O35          C41   1.269       .  A
O36          C41   1.273       .  A
C37         C745   1.489       .  S
O38          C40   1.271       .  A
O39         Ni50   1.942       .  S
C40          O46   1.280       .  A
C40         C761   1.486       .  S
C41         C865   1.494       .  S
H42          O43   0.966       .  S
O43         Ni51   1.910       .  S
O43         Ni45   1.905       .  S
O43         Ni50   1.934       .  S
O44         Ni45   1.918       .  S
Ni45         O49   1.912       .  S
Ni45         O47   1.923       .  S
O46         Ni51   1.954       .  S
C48          O49   1.269       .  A
C48         C777   1.490       .  S
O53         Ni59   1.922       .  S
O53          C74   1.270       .  A
O54         Ni77   1.901       .  S
O54          C63   1.267       .  A
O55         Ni59   1.920       .  S
O55         Ni77   1.918       .  S
O55         Ni71   1.942       .  S
O55          H78   0.966       .  S
C56          O73   1.277       .  A
C56          O65   1.276       .  A
C56         C713   1.494       .  S
O57         Ni76   1.933       .  S
O57          C63   1.273       .  A
O58         Ni76   1.916       .  S
O58          C60   1.271       .  A
Ni59         O62   1.932       .  S
Ni59         O64   1.900       .  S
C60          O70   1.271       .  A
C60         C649   1.479       .  S
O61         Ni77   1.916       .  S
O61          C67   1.269       .  A
O62          C67   1.271       .  A
C63         C673   1.474       .  S
O64          C66   1.272       .  A
O65         Ni76   1.929       .  S
C66          O72   1.279       .  A
C66         C681   1.483       .  S
C67         C697   1.492       .  S
H68          O69   0.968       .  S
O69         Ni77   1.913       .  S
O69         Ni71   1.902       .  S
O69         Ni76   1.923       .  S
O70         Ni71   1.920       .  S
Ni71         O75   1.906       .  S
Ni71         O73   1.927       .  S
O72         Ni77   1.953       .  S
C74          O75   1.267       .  A
C74         C825   1.474       .  S
O79         Ni85   1.918       .  S
O79         C100   1.268       .  A
O80        Ni103   1.914       .  S
O80          C89   1.273       .  A
O81         Ni85   1.923       .  S
O81        Ni103   1.931       .  S
O81         Ni97   1.948       .  S
O81         H104   0.967       .  S
C82          O99   1.275       .  A
C82          O91   1.278       .  A
C82         C705   1.494       .  S
O83        Ni102   1.949       .  S
O83          C89   1.279       .  A
O84        Ni102   1.923       .  S
O84          C86   1.275       .  A
Ni85         O88   1.923       .  S
Ni85         O90   1.895       .  S
C86          O96   1.276       .  A
C86         C601   1.487       .  S
O87        Ni103   1.927       .  S
O87          C93   1.271       .  A
O88          C93   1.268       .  A
C89         C625   1.492       .  S
O90          C92   1.272       .  A
O91        Ni102   1.939       .  S
C92          O98   1.282       .  A
C92         C641   1.470       .  S
C93         C721   1.494   1_556  S
H94          O95   0.967       .  S
O95        Ni103   1.913       .  S
O95         Ni97   1.904       .  S
O95        Ni102   1.921       .  S
O96         Ni97   1.934       .  S
Ni97        O101   1.923       .  S
Ni97         O99   1.920       .  S
O98        Ni103   1.957       .  S
C100        O101   1.271       .  A
C100        C769   1.488       .  S
O105       Ni111   1.914       .  S
O105        C126   1.267   1_556  A
O106       Ni129   1.906       .  S
O106        C115   1.271       .  A
O107       Ni111   1.896       .  S
O107       Ni129   1.898       .  S
O107       Ni123   1.906   1_556  S
O107        H130   0.965       .  S
C108        O125   1.273       .  A
C108        O117   1.283       .  A
C108        C553   1.491       .  S
O109       Ni128   1.958   1_556  S
O109        C115   1.280       .  A
O110       Ni128   1.911       .  S
O110        C112   1.271       .  A
Ni111       O114   1.900       .  S
Ni111       O116   1.907       .  S
C112        O122   1.276       .  A
C112        C569   1.482       .  S
O113       Ni129   1.950       .  S
O113        C119   1.285       .  A
O114        C119   1.274       .  A
C115        C585   1.485       .  S
O116        C118   1.268       .  A
O117       Ni128   1.956       .  S
C118        O124   1.270       .  A
C118        C633   1.473       .  S
C119        C537   1.486       .  S
H120        O121   0.967       .  S
O121       Ni129   1.918   1_554  S
O121       Ni123   1.907       .  S
O121       Ni128   1.909       .  S
O122       Ni123   1.934       .  S
Ni123       O127   1.927       .  S
Ni123       O125   1.901       .  S
O124       Ni129   1.932       .  S
C126        O127   1.271       .  A
C126        C841   1.484       .  S
O131       Ni137   1.943       .  S
O131        C152   1.276       .  A
O132       Ni155   1.896       .  S
O132        C141   1.266       .  A
O133       Ni137   1.911       .  S
O133       Ni155   1.907       .  S
O133       Ni149   1.925       .  S
O133        H156   0.965       .  S
C134        O151   1.280       .  A
C134        O143   1.275       .  A
C134        C545   1.477       .  S
O135       Ni154   1.932       .  S
O135        C141   1.273       .  A
O136       Ni154   1.923       .  S
O136        C138   1.272       .  A
Ni137       O140   1.935       .  S
Ni137       O142   1.898       .  S
C138        O148   1.271       .  A
C138        C505   1.483       .  S
O139       Ni155   1.910       .  S
O139        C145   1.271       .  A
O140        C145   1.277       .  A
C141        C529   1.469       .  S
O142        C144   1.271       .  A
O143       Ni154   1.923       .  S
C144        O150   1.277       .  A
C144        C689   1.481       .  S
C145        C561   1.481       .  S
H146        O147   0.966       .  S
O147       Ni155   1.902       .  S
O147       Ni149   1.900       .  S
O147       Ni154   1.912       .  S
O148       Ni149   1.918       .  S
Ni149       O153   1.908       .  S
Ni149       O151   1.921       .  S
O150       Ni155   1.941       .  S
C152        O153   1.269       .  A
C152        C785   1.490       .  S
O157       Ni163   1.927       .  S
O157        C178   1.271       .  A
O158       Ni181   1.902       .  S
O158        C167   1.269       .  A
O159       Ni163   1.912       .  S
O159       Ni181   1.911       .  S
O159       Ni175   1.911       .  S
O159        H182   0.966       .  S
C160        O177   1.271       .  A
C160        O169   1.274       .  A
C160        C489   1.471       .  S
O161       Ni180   1.933       .  S
O161        C167   1.273       .  A
O162       Ni180   1.916       .  S
O162        C164   1.272       .  A
Ni163       O166   1.912       .  S
Ni163       O168   1.907       .  S
C164        O174   1.274       .  A
C164        C817   1.486       .  S
O165       Ni181   1.901       .  S
O165        C171   1.269       .  A
O166        C171   1.272       .  A
C167        C521   1.476       .  S
O168        C170   1.271       .  A
O169       Ni180   1.919       .  S
C170        O176   1.278       .  A
C170        C457   1.487       .  S
C171        C481   1.465       .  S
H172        O173   0.966       .  S
O173       Ni181   1.900       .  S
O173       Ni175   1.910       .  S
O173       Ni180   1.917       .  S
O174       Ni175   1.933       .  S
Ni175       O179   1.918       .  S
Ni175       O177   1.898       .  S
O176       Ni181   1.947       .  S
C178        O179   1.268       .  A
C178        C449   1.481       .  S
O183       Ni189   1.924       .  S
O183        C204   1.270       .  A
O184       Ni207   1.909       .  S
O184        C193   1.272       .  A
O185       Ni189   1.901       .  S
O185       Ni207   1.907       .  S
O185       Ni201   1.901       .  S
O185        H208   0.966       .  S
C186        O203   1.270       .  A
C186        O195   1.281       .  A
C186        C473   1.471       .  S
O187       Ni206   1.952       .  S
O187        C193   1.277       .  A
O188       Ni206   1.912       .  S
O188        C190   1.271       .  A
Ni189       O192   1.902       .  S
Ni189       O194   1.912       .  S
C190        O200   1.276       .  A
C190        C753   1.486       .  S
O191       Ni207   1.918       .  S
O191        C197   1.278       .  A
O192        C197   1.274       .  A
C193        C593   1.487       .  S
O194        C196   1.270       .  A
O195       Ni206   1.938       .  S
C196        O202   1.274       .  A
C196        C425   1.484       .  S
C197        C497   1.466   1_556  S
H198        O199   0.966       .  S
O199       Ni207   1.896       .  S
O199       Ni201   1.904       .  S
O199       Ni206   1.907       .  S
O200       Ni201   1.942       .  S
Ni201       O205   1.920       .  S
Ni201       O203   1.883       .  S
O202       Ni207   1.939       .  S
C204        O205   1.269       .  A
C204        C409   1.479       .  S
O209       Ni215   1.932       .  S
O209        C230   1.274       .  A
O210       Ni233   1.890       .  S
O210        C219   1.265       .  A
O211       Ni215   1.925       .  S
O211       Ni233   1.912       .  S
O211       Ni227   1.944       .  S
O211        H234   0.967       .  S
C212        O229   1.278       .  A
C212        O221   1.279       .  A
C212        C385   1.487   1_554  S
O213       Ni232   1.949       .  S
O213        C219   1.277       .  A
O214       Ni232   1.925       .  S
O214        C216   1.272       .  A
Ni215       O218   1.961       .  S
Ni215       O220   1.896       .  S
C216        O226   1.272       .  A
C216        C577   1.489       .  S
O217       Ni233   1.893       .  S
O217        C223   1.261       .  A
O218        C223   1.276       .  A
C219        C657   1.484       .  S
O220        C222   1.269       .  A
O221       Ni232   1.937       .  S
C222        O228   1.285       .  A
C222        C441   1.480       .  S
C223        C393   1.494       .  S
H224        O225   0.964       .  S
O225       Ni233   1.887       .  S
O225       Ni227   1.892       .  S
O225       Ni232   1.921       .  S
O226       Ni227   1.926       .  S
Ni227       O231   1.906       .  S
Ni227       O229   1.917       .  S
O228       Ni233   1.970       .  S
C230        O231   1.269       .  A
C230        C369   1.490       .  S
O235       Ni241   1.926       .  S
O235        C256   1.271       .  A
O236       Ni259   1.889       .  S
O236        C245   1.269       .  A
O237       Ni241   1.920       .  S
O237       Ni259   1.910       .  S
O237       Ni253   1.936       .  S
O237        H260   0.967       .  S
C238        O255   1.273       .  A
C238        O247   1.283       .  A
C238        C401   1.496       .  S
O239       Ni258   1.960       .  S
O239        C245   1.281       .  A
O240       Ni258   1.921       .  S
O240        C242   1.271       .  A
Ni241       O244   1.935       .  S
Ni241       O246   1.904       .  S
C242        O252   1.270       .  A
C242        C513   1.479       .  S
O243       Ni259   1.914       .  S
O243        C249   1.268       .  A
O244        C249   1.271       .  A
C245        C609   1.486       .  S
O246        C248   1.273       .  A
O247       Ni258   1.960       .  S
C248        O254   1.284       .  A
C248        C417   1.476       .  S
C249        C377   1.489       .  S
H250        O251   0.968       .  S
O251       Ni259   1.900       .  S
O251       Ni253   1.885       .  S
O251       Ni258   1.926       .  S
O252       Ni253   1.918       .  S
Ni253       O257   1.887       .  S
Ni253       O255   1.907       .  S
O254       Ni259   1.963       .  S
C256        O257   1.262       .  A
C256        C353   1.478       .  S
O261       Ni267   1.927       .  S
O261        C282   1.271   1_556  A
O262       Ni285   1.901       .  S
O262        C271   1.269       .  A
O263       Ni267   1.923       .  S
O263       Ni285   1.914       .  S
O263       Ni279   1.932   1_556  S
O263        H286   0.960       .  S
C264        O281   1.272       .  A
C264        O273   1.278       .  A
C264        C329   1.486       .  S
O265       Ni284   1.955       .  S
O265        C271   1.280   1_554  A
O266       Ni284   1.928       .  S
O266        C268   1.275       .  A
Ni267       O270   1.938       .  S
Ni267       O272   1.891       .  S
C268        O278   1.273       .  A
C268        C793   1.483       .  S
O269       Ni285   1.895       .  S
O269        C275   1.263       .  A
O270        C275   1.270       .  A
C271        C617   1.488       .  S
O272        C274   1.271       .  A
O273       Ni284   1.941       .  S
C274        O280   1.285       .  A
C274        C433   1.479       .  S
C275        C313   1.481       .  S
H276        O277   0.960       .  S
O277       Ni285   1.897   1_554  S
O277       Ni279   1.898       .  S
O277       Ni284   1.923       .  S
O278       Ni279   1.925       .  S
Ni279       O283   1.901       .  S
Ni279       O281   1.907       .  S
O280       Ni285   1.974       .  S
C282        O283   1.267       .  A
C282        C361   1.486       .  S
O287       Ni293   1.921       .  S
O287        C308   1.271       .  A
O288       Ni311   1.895       .  S
O288        C297   1.269       .  A
O289       Ni293   1.921       .  S
O289       Ni311   1.908       .  S
O289       Ni305   1.932       .  S
O289        H312   0.967       .  S
C290        O307   1.269       .  A
C290        O299   1.278       .  A
C290        C321   1.483       .  S
O291       Ni310   1.940       .  S
O291        C297   1.277       .  A
O292       Ni310   1.919       .  S
O292        C294   1.272       .  A
Ni293       O296   1.936       .  S
Ni293       O298   1.894       .  S
C294        O304   1.274       .  A
C294        C737   1.487       .  S
O295       Ni311   1.903       .  S
O295        C301   1.264       .  A
O296        C301   1.269       .  A
C297        C665   1.478       .  S
O298        C300   1.273       .  A
O299       Ni310   1.944       .  S
C300        O306   1.285       .  A
C300        C465   1.483       .  S
C301        C337   1.482       .  S
H302        O303   0.966       .  S
O303       Ni311   1.900       .  S
O303       Ni305   1.891       .  S
O303       Ni310   1.916       .  S
O304       Ni305   1.930       .  S
Ni305       O309   1.894       .  S
Ni305       O307   1.903       .  S
O306       Ni311   1.970       .  S
C308        O309   1.265       .  A
C308        C345   1.478       .  S
C313        C314   1.407       .  A
C313        C318   1.409       .  A
C314        C315   1.394       .  A
C314        H323   1.083       .  S
C315        C316   1.400       .  A
C315        H324   1.084       .  S
C316        C322   1.401       .  A
C316        C317   1.413       .  A
C317        C319   1.403       .  A
C317        C318   1.405       .  A
C318        H325   1.084       .  S
C319        C320   1.399       .  A
C319        H326   1.084       .  S
C320        C321   1.408       .  A
C320        H327   1.083       .  S
C321        C322   1.406       .  A
C322        H328   1.084       .  S
C329        C330   1.408       .  A
C329        C334   1.407       .  A
C330        C331   1.401       .  A
C330        H339   1.083       .  S
C331        C332   1.404       .  A
C331        H340   1.084       .  S
C332        C338   1.407       .  A
C332        C333   1.412       .  A
C333        C335   1.401       .  A
C333        C334   1.402       .  A
C334        H341   1.084       .  S
C335        C336   1.395       .  A
C335        H342   1.084       .  S
C336        C337   1.405       .  A
C336        H343   1.083       .  S
C337        C338   1.410       .  A
C338        H344   1.084       .  S
C345        C346   1.407       .  A
C345        C350   1.405       .  A
C346        C347   1.396       .  A
C346        H355   1.083       .  S
C347        C348   1.401       .  A
C347        H356   1.084       .  S
C348        C354   1.402       .  A
C348        C349   1.414       .  A
C349        C351   1.399       .  A
C349        C350   1.400       .  A
C350        H357   1.084       .  S
C351        C352   1.393       .  A
C351        H358   1.084       .  S
C352        C353   1.408       .  A
C352        H359   1.083       .  S
C353        C354   1.406       .  A
C354        H360   1.084       .  S
C361        C362   1.407       .  A
C361        C366   1.410       .  A
C362        C363   1.397       .  A
C362        H371   1.083       .  S
C363        C364   1.401       .  A
C363        H372   1.084       .  S
C364        C370   1.405       .  A
C364        C365   1.413       .  A
C365        C367   1.403       .  A
C365        C366   1.407       .  A
C366        H373   1.084   1_554  S
C367        C368   1.400       .  A
C367        H374   1.084   1_554  S
C368        C369   1.409       .  A
C368        H375   1.083       .  S
C369        C370   1.409       .  A
C370        H376   1.084       .  S
C377        C378   1.409       .  A
C377        C382   1.409       .  A
C378        C379   1.396       .  A
C378        H387   1.083       .  S
C379        C380   1.399       .  A
C379        H388   1.084       .  S
C380        C386   1.406       .  A
C380        C381   1.414       .  A
C381        C383   1.401       .  A
C381        C382   1.409       .  A
C382        H389   1.084       .  S
C383        C384   1.398       .  A
C383        H390   1.084       .  S
C384        C385   1.410       .  A
C384        H391   1.083       .  S
C385        C386   1.406       .  A
C386        H392   1.084       .  S
C393        C394   1.410       .  A
C393        C398   1.409       .  A
C394        C395   1.400       .  A
C394        H403   1.083       .  S
C395        C396   1.401       .  A
C395        H404   1.084       .  S
C396        C402   1.413       .  A
C396        C397   1.415       .  A
C397        C399   1.402       .  A
C397        C398   1.413       .  A
C398        H405   1.084       .  S
C399        C400   1.400       .  A
C399        H406   1.083       .  S
C400        C401   1.409       .  A
C400        H407   1.083       .  S
C401        C402   1.410       .  A
C402        H408   1.084       .  S
C409        C410   1.404       .  A
C409        C414   1.408       .  A
C410        C411   1.395       .  A
C410        H419   1.083       .  S
C411        C412   1.400       .  A
C411        H420   1.084       .  S
C412        C418   1.405       .  A
C412        C413   1.416       .  A
C413        C415   1.405       .  A
C413        C414   1.412       .  A
C414        H421   1.084       .  S
C415        C416   1.402       .  A
C415        H422   1.083       .  S
C416        C417   1.405       .  A
C416        H423   1.083       .  S
C417        C418   1.403       .  A
C418        H424   1.085       .  S
C425        C426   1.406       .  A
C425        C430   1.404       .  A
C426        C427   1.407       .  A
C426        H435   1.083       .  S
C427        C428   1.408       .  A
C427        H436   1.083       .  S
C428        C434   1.415       .  A
C428        C429   1.415       .  A
C429        C431   1.399       .  A
C429        C430   1.402       .  A
C430        H437   1.085       .  S
C431        C432   1.393       .  A
C431        H438   1.084   1_556  S
C432        C433   1.405       .  A
C432        H439   1.084   1_556  S
C433        C434   1.410       .  A
C434        H440   1.084       .  S
C441        C442   1.406       .  A
C441        C446   1.404       .  A
C442        C443   1.401       .  A
C442        H451   1.083       .  S
C443        C444   1.403       .  A
C443        H452   1.084       .  S
C444        C450   1.412       .  A
C444        C445   1.417       .  A
C445        C447   1.401       .  A
C445        C446   1.409       .  A
C446        H453   1.085       .  S
C447        C448   1.397       .  A
C447        H454   1.084       .  S
C448        C449   1.405       .  A
C448        H455   1.083       .  S
C449        C450   1.407       .  A
C450        H456   1.084       .  S
C457        C458   1.406       .  A
C457        C462   1.406       .  A
C458        C459   1.407       .  A
C458        H467   1.083       .  S
C459        C460   1.408       .  A
C459        H468   1.083       .  S
C460        C466   1.415       .  A
C460        C461   1.414       .  A
C461        C463   1.399       .  A
C461        C462   1.402       .  A
C462        H469   1.085       .  S
C463        C464   1.392       .  A
C463        H470   1.084       .  S
C464        C465   1.406       .  A
C464        H471   1.084       .  S
C465        C466   1.411       .  A
C466        H472   1.084       .  S
C473        C474   1.407       .  A
C473        C478   1.403       .  A
C474        C475   1.392       .  A
C474        H483   1.083       .  S
C475        C476   1.399       .  A
C475        H484   1.084       .  S
C476        C482   1.395       .  A
C476        C477   1.414       .  A
C477        C479   1.401       .  A
C477        C478   1.398       .  A
C478        H485   1.084       .  S
C479        C480   1.394       .  A
C479        H486   1.084       .  S
C480        C481   1.403       .  A
C480        H487   1.083       .  S
C481        C482   1.402       .  A
C482        H488   1.085       .  S
C489        C490   1.405       .  A
C489        C494   1.406       .  A
C490        C491   1.394       .  A
C490        H499   1.083       .  S
C491        C492   1.402       .  A
C491        H500   1.084       .  S
C492        C498   1.395       .  A
C492        C493   1.411       .  A
C493        C495   1.402       .  A
C493        C494   1.394       .  A
C494        H501   1.084       .  S
C495        C496   1.394       .  A
C495        H502   1.084       .  S
C496        C497   1.402       .  A
C496        H503   1.083       .  S
C497        C498   1.406       .  A
C498        H504   1.085       .  S
C505        C506   1.406       .  A
C505        C510   1.406       .  A
C506        C507   1.406       .  A
C506        H515   1.083       .  S
C507        C508   1.408   1_455  A
C507        H516   1.083   1_455  S
C508        C514   1.412       .  A
C508        C509   1.413   1_655  A
C509        C511   1.399   1_455  A
C509        C510   1.397       .  A
C510        H517   1.085       .  S
C511        C512   1.391       .  A
C511        H518   1.084   1_655  S
C512        C513   1.405       .  A
C512        H519   1.084       .  S
C513        C514   1.410       .  A
C514        H520   1.084       .  S
C521        C522   1.404       .  A
C521        C526   1.407       .  A
C522        C523   1.397       .  A
C522        H531   1.083       .  S
C523        C524   1.402       .  A
C523        H532   1.084       .  S
C524        C530   1.401       .  A
C524        C525   1.414       .  A
C525        C527   1.405       .  A
C525        C526   1.404       .  A
C526        H533   1.084       .  S
C527        C528   1.399       .  A
C527        H534   1.083       .  S
C528        C529   1.402       .  A
C528        H535   1.084       .  S
C529        C530   1.403       .  A
C530        H536   1.085       .  S
C537        C538   1.411       .  A
C537        C542   1.405       .  A
C538        C539   1.394       .  A
C538        H547   1.083       .  S
C539        C540   1.397       .  A
C539        H548   1.084       .  S
C540        C546   1.405       .  A
C540        C541   1.416       .  A
C541        C543   1.400       .  A
C541        C542   1.408       .  A
C542        H549   1.084       .  S
C543        C544   1.397       .  A
C543        H550   1.084       .  S
C544        C545   1.408       .  A
C544        H551   1.083       .  S
C545        C546   1.402       .  A
C546        H552   1.084       .  S
C553        C554   1.409       .  A
C553        C558   1.410       .  A
C554        C555   1.398       .  A
C554        H563   1.083       .  S
C555        C556   1.401       .  A
C555        H564   1.084       .  S
C556        C562   1.407       .  A
C556        C557   1.414       .  A
C557        C559   1.403       .  A
C557        C558   1.409       .  A
C558        H565   1.084       .  S
C559        C560   1.400       .  A
C559        H566   1.084       .  S
C560        C561   1.406       .  A
C560        H567   1.083       .  S
C561        C562   1.406       .  A
C562        H568   1.084       .  S
C569        C570   1.405       .  A
C569        C574   1.412       .  A
C570        C571   1.394       .  A
C570        H579   1.083       .  S
C571        C572   1.400   1_455  A
C571        H580   1.084   1_455  S
C572        C578   1.400       .  A
C572        C573   1.412   1_655  A
C573        C575   1.407   1_455  A
C573        C574   1.410       .  A
C574        H581   1.084       .  S
C575        C576   1.405       .  A
C575        H582   1.083   1_655  S
C576        C577   1.407       .  A
C576        H583   1.083       .  S
C577        C578   1.409       .  A
C578        H584   1.084       .  S
C585        C586   1.406       .  A
C585        C590   1.405       .  A
C586        C587   1.406       .  A
C586        H595   1.083       .  S
C587        C588   1.407       .  A
C587        H596   1.083       .  S
C588        C594   1.416       .  A
C588        C589   1.415       .  A
C589        C591   1.401       .  A
C589        C590   1.407       .  A
C590        H597   1.085       .  S
C591        C592   1.396       .  A
C591        H598   1.084       .  S
C592        C593   1.404       .  A
C592        H599   1.083       .  S
C593        C594   1.412       .  A
C594        H600   1.084       .  S
C601        C602   1.407       .  A
C601        C606   1.405       .  A
C602        C603   1.405       .  A
C602        H611   1.083       .  S
C603        C604   1.405       .  A
C603        H612   1.084       .  S
C604        C610   1.413   1_565  A
C604        C605   1.414       .  A
C605        C607   1.399       .  A
C605        C606   1.404       .  A
C606        H613   1.085       .  S
C607        C608   1.393   1_565  A
C607        H614   1.084       .  S
C608        C609   1.407       .  A
C608        H615   1.083       .  S
C609        C610   1.411       .  A
C610        H616   1.084       .  S
C617        C618   1.406       .  A
C617        C622   1.409       .  A
C618        C619   1.401       .  A
C618        H627   1.083       .  S
C619        C620   1.404       .  A
C619        H628   1.083       .  S
C620        C626   1.412       .  A
C620        C621   1.415       .  A
C621        C623   1.405       .  A
C621        C622   1.413       .  A
C622        H629   1.084   1_556  S
C623        C624   1.403       .  A
C623        H630   1.083   1_556  S
C624        C625   1.406       .  A
C624        H631   1.083       .  S
C625        C626   1.410       .  A
C626        H632   1.084       .  S
C633        C634   1.404       .  A
C633        C638   1.401       .  A
C634        C635   1.404       .  A
C634        H643   1.083       .  S
C635        C636   1.407       .  A
C635        H644   1.083       .  S
C636        C642   1.410       .  A
C636        C637   1.415       .  A
C637        C639   1.399       .  A
C637        C638   1.399       .  A
C638        H645   1.085       .  S
C639        C640   1.392       .  A
C639        H646   1.084       .  S
C640        C641   1.402       .  A
C640        H647   1.084       .  S
C641        C642   1.408       .  A
C642        H648   1.084       .  S
C649        C650   1.405       .  A
C649        C654   1.405       .  A
C650        C651   1.401       .  A
C650        H659   1.083       .  S
C651        C652   1.404       .  A
C651        H660   1.083       .  S
C652        C658   1.408   1_565  A
C652        C653   1.414       .  A
C653        C655   1.399       .  A
C653        C654   1.402       .  A
C654        H661   1.085       .  S
C655        C656   1.395   1_565  A
C655        H662   1.084       .  S
C656        C657   1.407       .  A
C656        H663   1.083       .  S
C657        C658   1.408       .  A
C658        H664   1.084       .  S
C665        C666   1.405       .  A
C665        C670   1.407       .  A
C666        C667   1.397       .  A
C666        H675   1.083       .  S
C667        C668   1.402       .  A
C667        H676   1.084       .  S
C668        C674   1.403       .  A
C668        C669   1.414       .  A
C669        C671   1.404       .  A
C669        C670   1.404       .  A
C670        H677   1.084       .  S
C671        C672   1.399       .  A
C671        H678   1.084       .  S
C672        C673   1.404       .  A
C672        H679   1.083       .  S
C673        C674   1.405       .  A
C674        H680   1.085       .  S
C681        C682   1.407       .  A
C681        C686   1.402       .  A
C682        C683   1.406       .  A
C682        H691   1.083       .  S
C683        C684   1.406       .  A
C683        H692   1.083       .  S
C684        C690   1.414       .  A
C684        C685   1.415       .  A
C685        C687   1.396       .  A
C685        C686   1.398       .  A
C686        H693   1.085       .  S
C687        C688   1.388       .  A
C687        H694   1.084       .  S
C688        C689   1.407       .  A
C688        H695   1.084       .  S
C689        C690   1.409       .  A
C690        H696   1.084       .  S
C697        C698   1.409       .  A
C697        C702   1.409       .  A
C698        C699   1.400       .  A
C698        H707   1.083       .  S
C699        C700   1.402       .  A
C699        H708   1.084       .  S
C700        C706   1.410       .  A
C700        C701   1.414       .  A
C701        C703   1.402       .  A
C701        C702   1.410       .  A
C702        H709   1.084       .  S
C703        C704   1.400       .  A
C703        H710   1.084       .  S
C704        C705   1.409       .  A
C704        H711   1.083       .  S
C705        C706   1.410       .  A
C706        H712   1.084       .  S
C713        C714   1.410       .  A
C713        C718   1.408       .  A
C714        C715   1.401       .  A
C714        H723   1.083       .  S
C715        C716   1.402       .  A
C715        H724   1.084       .  S
C716        C722   1.414       .  A
C716        C717   1.415       .  A
C717        C719   1.400       .  A
C717        C718   1.410       .  A
C718        H725   1.084       .  S
C719        C720   1.398       .  A
C719        H726   1.084       .  S
C720        C721   1.410       .  A
C720        H727   1.083       .  S
C721        C722   1.409       .  A
C722        H728   1.084       .  S
C729        C730   1.406       .  A
C729        C734   1.412       .  A
C730        C731   1.389       .  A
C730        H739   1.084       .  S
C731        C732   1.397       .  A
C731        H740   1.084       .  S
C732        C738   1.398   1_455  A
C732        C733   1.413       .  A
C733        C735   1.407       .  A
C733        C734   1.414       .  A
C734        H741   1.084       .  S
C735        C736   1.407   1_455  A
C735        H742   1.083       .  S
C736        C737   1.407       .  A
C736        H743   1.083       .  S
C737        C738   1.406       .  A
C738        H744   1.084       .  S
C745        C746   1.409       .  A
C745        C750   1.408       .  A
C746        C747   1.396       .  A
C746        H755   1.083       .  S
C747        C748   1.400   1_565  A
C747        H756   1.084       .  S
C748        C754   1.408       .  A
C748        C749   1.415   1_545  A
C749        C751   1.402   1_565  A
C749        C750   1.410       .  A
C750        H757   1.084       .  S
C751        C752   1.400       .  A
C751        H758   1.084       .  S
C752        C753   1.408       .  A
C752        H759   1.083       .  S
C753        C754   1.406       .  A
C754        H760   1.084       .  S
C761        C762   1.406       .  A
C761        C766   1.409       .  A
C762        C763   1.402       .  A
C762        H771   1.084       .  S
C763        C764   1.405       .  A
C763        H772   1.084       .  S
C764        C770   1.410       .  A
C764        C765   1.413       .  A
C765        C767   1.404       .  A
C765        C766   1.410       .  A
C766        H773   1.084       .  S
C767        C768   1.402       .  A
C767        H774   1.083       .  S
C768        C769   1.405       .  A
C768        H775   1.083       .  S
C769        C770   1.411       .  A
C770        H776   1.084       .  S
C777        C778   1.407       .  A
C777        C782   1.411       .  A
C778        C779   1.401       .  A
C778        H787   1.083       .  S
C779        C780   1.404       .  A
C779        H788   1.083       .  S
C780        C786   1.409       .  A
C780        C781   1.412       .  A
C781        C783   1.403       .  A
C781        C782   1.407       .  A
C782        H789   1.084       .  S
C783        C784   1.399       .  A
C783        H790   1.084       .  S
C784        C785   1.407       .  A
C784        H791   1.083       .  S
C785        C786   1.411       .  A
C786        H792   1.084       .  S
C793        C794   1.406       .  A
C793        C798   1.410       .  A
C794        C795   1.392   1_655  A
C794        H803   1.084       .  S
C795        C796   1.399       .  A
C795        H804   1.084       .  S
C796        C802   1.401       .  A
C796        C797   1.414       .  A
C797        C799   1.407       .  A
C797        C798   1.414   1_455  A
C798        H805   1.084       .  S
C799        C800   1.406       .  A
C799        H806   1.083       .  S
C800        C801   1.407       .  A
C800        H807   1.083       .  S
C801        C802   1.406       .  A
C802        H808   1.084       .  S
C809        C810   1.407       .  A
C809        C814   1.408       .  A
C810        C811   1.396       .  A
C810        H819   1.083       .  S
C811        C812   1.401   1_565  A
C811        H820   1.084   1_565  S
C812        C818   1.405       .  A
C812        C813   1.414       .  A
C813        C815   1.404       .  A
C813        C814   1.410   1_545  A
C814        H821   1.084       .  S
C815        C816   1.402       .  A
C815        H822   1.083       .  S
C816        C817   1.407       .  A
C816        H823   1.083       .  S
C817        C818   1.407       .  A
C818        H824   1.084       .  S
C825        C826   1.403       .  A
C825        C830   1.406       .  A
C826        C827   1.398       .  A
C826        H835   1.084       .  S
C827        C828   1.402       .  A
C827        H836   1.083       .  S
C828        C834   1.405       .  A
C828        C829   1.414       .  A
C829        C831   1.403       .  A
C829        C830   1.406       .  A
C830        H837   1.084       .  S
C831        C832   1.399       .  A
C831        H838   1.084       .  S
C832        C833   1.407       .  A
C832        H839   1.083       .  S
C833        C834   1.406       .  A
C834        H840   1.084       .  S
C841        C842   1.409   1_554  A
C841        C846   1.406       .  A
C842        C843   1.394   1_556  A
C842        H851   1.083       .  S
C843        C844   1.397       .  A
C843        H852   1.084   1_554  S
C844        C850   1.406       .  A
C844        C845   1.417       .  A
C845        C847   1.400       .  A
C845        C846   1.409       .  A
C846        H853   1.084       .  S
C847        C848   1.397       .  A
C847        H854   1.084       .  S
C848        C849   1.408       .  A
C848        H855   1.083       .  S
C849        C850   1.401       .  A
C850        H856   1.085       .  S
C857        C858   1.411   1_554  A
C857        C862   1.408   1_554  A
C858        C859   1.400       .  A
C858        H867   1.083       .  S
C859        C860   1.402       .  A
C859        H868   1.084       .  S
C860        C866   1.412       .  A
C860        C861   1.414       .  A
C861        C863   1.401       .  A
C861        C862   1.411       .  A
C862        H869   1.084   1_556  S
C863        C864   1.398       .  A
C863        H870   1.084       .  S
C864        C865   1.409       .  A
C864        H871   1.083       .  S
C865        C866   1.411       .  A
C866        H872   1.084       .  S
C873        C874   1.411       .  A
C873        C878   1.409       .  A
C874        C875   1.397       .  A
C874        H883   1.083       .  S
C875        C876   1.400       .  A
C875        H884   1.084       .  S
C876        C882   1.411       .  A
C876        C877   1.415       .  A
C877        C879   1.402       .  A
C877        C878   1.413       .  A
C878        H885   1.084       .  S
C879        C880   1.401       .  A
C879        H886   1.084       .  S
C880        C881   1.411       .  A
C880        H887   1.083       .  S
C881        C882   1.409       .  A
C882        H888   1.084       .  S
