geometry optimzed in LAMMPS
_audit_creation_date              2020-12-01 
_audit_creation_method            'lammps2cif' 
_symmetry_space_group_name_H-M    'P1' 
_symmetry_Int_Tables_number       1 
_symmetry_cell_setting            triclinic 
loop_ 
_symmetry_equiv_pos_as_xyz 
  x,y,z 
_cell_length_a                    53.00159351 
_cell_length_b                    28.880202686321482 
_cell_length_c                    39.33594953875276 
_cell_angle_alpha                 90.00500771086705 
_cell_angle_beta                  90.06846462789062 
_cell_angle_gamma                 89.93385280936135 
loop_ 
_atom_site_label 
_atom_site_type_symbol 
_atom_site_fract_x 
_atom_site_fract_y 
_atom_site_fract_z 
_atom_site_charge 
C1          C  0.14239561  0.01518411  0.78148045     0.80700
N2          N  0.15514719  0.99027485  0.75764300    -0.77600
C3          C  0.14240905  0.96585430  0.73354789     0.83100
N4          N  0.11678678  0.96707443  0.73296597    -0.77600
C5          C  0.10389250  0.99269473  0.75608991     0.83200
N6          N  0.11683684  0.01631900  0.78021317    -0.79300
C7          C  0.87480605  0.97184579  0.77420771     0.80700
N8          N  0.90037948  0.97246876  0.77549051    -0.77600
C9          C  0.91378668  0.00008745  0.75424532     0.83100
N10         N  0.90138395  0.02663783  0.73108661    -0.77600
C11         C  0.87581038  0.02565735  0.72931308     0.83200
N12         N  0.86258559  0.99828098  0.75091661    -0.79300
O13         O  0.25589405  0.79729476  0.54229199    -0.74000
O14         O  0.29083810  0.72539487  0.47573143    -0.74000
O15         O  0.25724790  0.79580272  0.47328961    -0.74100
O16         O  0.28920869  0.72657316  0.54444308    -0.74100
O17         O  0.25736795  0.67645770  0.54400244    -0.74100
O18         O  0.22591255  0.74467436  0.47223662    -0.74000
O19         O  0.25953844  0.67425692  0.47515033    -0.74000
O20         O  0.22380387  0.74742998  0.54097786    -0.74100
Ni21       Ni  0.27439608  0.76308328  0.50896826     1.25400
Ni22       Ni  0.24051993  0.70890185  0.50808632     1.25400
C23         C  0.23419242  0.78416919  0.55273905     0.88200
C24         C  0.28108906  0.68791494  0.46431508     0.88100
C25         C  0.23632735  0.78149261  0.46076826     0.88100
C26         C  0.27860732  0.68990802  0.55596060     0.88300
C27         C  0.37537669  0.51481913  0.73652483     0.80700
N28         N  0.36467193  0.48879160  0.76124114    -0.77600
C29         C  0.37901856  0.46664887  0.78480140     0.83100
N30         N  0.40459548  0.47106890  0.78372765    -0.77600
C31         C  0.41560823  0.49723829  0.75906567     0.83200
N32         N  0.40086586  0.51854618  0.73555177    -0.79300
C33         C  0.64161711  0.49849593  0.70174794     0.80700
N34         N  0.61606997  0.49870277  0.70407455    -0.77600
C35         C  0.60440067  0.52219461  0.72945969     0.83100
N36         N  0.61859697  0.54464187  0.75301514    -0.77600
C37         C  0.64423272  0.54481955  0.75118956     0.83200
N38         N  0.65558666  0.52157723  0.72527020    -0.79300
O39         O  0.75938630  0.67308830  0.02905447    -0.74000
O40         O  0.79528234  0.74128417  0.96127920    -0.74000
O41         O  0.79494854  0.73993618  0.03010695    -0.74100
O42         O  0.75943278  0.67449044  0.95980243    -0.74100
O43         O  0.72962855  0.72896021  0.96007319    -0.74100
O44         O  0.76473739  0.79340876  0.03062997    -0.74000
O45         O  0.76511622  0.79524456  0.96163889    -0.74000
O46         O  0.72895020  0.72655919  0.02887643    -0.74100
Ni47       Ni  0.77831791  0.70520236  0.99505267     1.25400
Ni48       Ni  0.74605285  0.76294852  0.99538845     1.25400
C49         C  0.73837616  0.68877178  0.04024013     0.88200
C50         C  0.78600094  0.77933823  0.95018154     0.88100
C51         C  0.78568485  0.77753262  0.04211442     0.88100
C52         C  0.73884169  0.69144304  0.94792509     0.88300
C53         C  0.37698561  0.46920837  0.23338873     0.80700
N54         N  0.36504249  0.49225291  0.25875361    -0.77600
C55         C  0.37834820  0.51553010  0.28276548     0.83100
N56         N  0.40394005  0.51632637  0.28093565    -0.77600
C57         C  0.41629432  0.49417694  0.25538666     0.83200
N58         N  0.40257865  0.47060603  0.23181933    -0.79300
C59         C  0.64572887  0.50366276  0.21677906     0.80700
N60         N  0.65831303  0.47574153  0.23872589    -0.77600
C61         C  0.64568440  0.45059298  0.26238474     0.83100
N62         N  0.62003802  0.45352626  0.26346290    -0.77600
C63         C  0.60714609  0.48126759  0.24148926     0.83200
N64         N  0.62027964  0.50666747  0.21857318    -0.79300
O65         O  0.76266125  0.18592733  0.53736231    -0.74000
O66         O  0.72800433  0.24050532  0.46187282    -0.74000
O67         O  0.76340810  0.17382632  0.46900580    -0.74100
O68         O  0.72703723  0.25290462  0.53008653    -0.74100
O69         O  0.75774399  0.30532785  0.52653686    -0.74100
O70         O  0.79332488  0.22726743  0.46402277    -0.74000
O71         O  0.75795494  0.29439159  0.45824843    -0.74000
O72         O  0.79326939  0.23828835  0.53227362    -0.74100
Ni73       Ni  0.74420409  0.21137785  0.49979511     1.25400
Ni74       Ni  0.77664151  0.26820178  0.49514315     1.25400
C75         C  0.78390576  0.20267476  0.54691007     0.88200
C76         C  0.73729247  0.27652248  0.44763616     0.88100
C77         C  0.78425125  0.18757706  0.45602166     0.88100
C78         C  0.73642870  0.29217603  0.53844676     0.88300
O79         O  0.26199924  0.29776283  0.04480360    -0.74000
O80         O  0.22778542  0.23478423  0.97272241    -0.74000
O81         O  0.22707703  0.22905342  0.04113930    -0.74100
O82         O  0.26289242  0.30312981  0.97627021    -0.74100
O83         O  0.29342104  0.25034237  0.97482980    -0.74100
O84         O  0.25787161  0.17665553  0.03939807    -0.74000
O85         O  0.25840413  0.18207816  0.97109614    -0.74000
O86         O  0.29268679  0.24530894  0.04321751    -0.74100
Ni87       Ni  0.24384422  0.26807598  0.00880822     1.25400
Ni88       Ni  0.27667784  0.21175732  0.00709542     1.25400
C89         C  0.28322372  0.28244085  0.05568813     0.88200
C90         C  0.23724890  0.19774382  0.96017137     0.88100
C91         C  0.23644005  0.19020250  0.05062362     0.88100
C92         C  0.28427431  0.28916882  0.96500911     0.88300
C93         C  0.14552165  0.99317776  0.22187611     0.80700
N94         N  0.11996230  0.99487452  0.22137084    -0.77600
C95         C  0.10606442  0.97476075  0.24619425     0.83100
N96         N  0.11815080  0.95201660  0.27174637    -0.77600
C97         C  0.14377462  0.94985248  0.27273174     0.83200
N98         N  0.15726090  0.97041674  0.24757555    -0.79300
C99         C  0.87636177  0.96194216  0.22421583     0.80700
N100        N  0.86431870  0.98409997  0.25003078    -0.77600
C101        C  0.87755693  0.00720083  0.27432456     0.83100
N102        N  0.90311139  0.00856672  0.27218759    -0.77600
C103        C  0.91546370  0.98706107  0.24642815     0.83200
N104        N  0.90194516  0.96364968  0.22268057    -0.79300
C105        C  0.03766275  0.94552485  0.26450691    -0.01600
C106        C  0.02460119  0.97827450  0.24461617     0.07000
C107        C  0.03823311  0.01059261  0.22558546    -0.07500
C108        C  0.06462844  0.01050111  0.22570720     0.04500
C109        C  0.07798441  0.97715399  0.24529937    -0.14800
C110        C  0.06406935  0.94511766  0.26465490    -0.08100
C111        C  0.99668462  0.98056466  0.24413706     0.05400
C112        C  0.98473859  0.01901711  0.25872235    -0.09200
C113        C  0.95839778  0.02247202  0.25934233     0.00400
C114        C  0.94347576  0.98667725  0.24513341     0.00300
C115        C  0.95564817  0.94883427  0.22964324    -0.12800
C116        C  0.98197867  0.94558498  0.22900367     0.00700
C117        C  0.94743255  0.06383185  0.27376336     0.40000
C118        C  0.99349819  0.90637146  0.21231320     0.36600
C119        C  0.02434459  0.91269387  0.28554150     0.36400
C120        C  0.07713277  0.04609007  0.20619973     0.37100
N121        N  0.93877430  0.09710344  0.28530998    -0.43700
N122        N  0.00272349  0.87492828  0.19895722    -0.44100
N123        N  0.08698579  0.07473849  0.19051205    -0.41500
N124        N  0.01362135  0.88640067  0.30235605    -0.42900
H125        H  0.07378106  0.91942329  0.27993717     0.13300
H126        H  0.02812784  0.03618260  0.21062689     0.09800
H127        H  0.99609743  0.04637976  0.26980018     0.10800
H128        H  0.94459215  0.92122107  0.21838310     0.16600
C129        C  0.15981176  0.05156609  0.13804845    -0.01600
C130        C  0.18455432  0.06757758  0.14311488     0.07000
C131        C  0.19723769  0.05701750  0.17336148    -0.07500
C132        C  0.18529703  0.03202000  0.19920236     0.04500
C133        C  0.16008089  0.01680087  0.19469040    -0.14800
C134        C  0.14784485  0.02628263  0.16364525    -0.08100
C135        C  0.19705476  0.09800852  0.11817808     0.05400
C136        C  0.19051290  0.14497970  0.11749367    -0.09200
C137        C  0.20290328  0.17584100  0.09577785     0.00400
C138        C  0.22232833  0.15951769  0.07415490     0.00300
C139        C  0.22848244  0.11204220  0.07471970    -0.12800
C140        C  0.21601701  0.08136480  0.09643361     0.00700
C141        C  0.19576483  0.22405178  0.09729214     0.40000
C142        C  0.22275991  0.03291073  0.09577031     0.36600
C143        C  0.14632013  0.06099518  0.10689320     0.36400
C144        C  0.19908599  0.02495834  0.23046621     0.37100
N145        N  0.18993853  0.26263851  0.09867284    -0.43700
N146        N  0.22809674  0.99405269  0.09515665    -0.44100
N147        N  0.21024357  0.01951640  0.25546389    -0.41500
N148        N  0.13550127  0.06849546  0.08191983    -0.42900
H149        H  0.12870029  0.01439957  0.15938533     0.13300
H150        H  0.21630261  0.06966755  0.17717090     0.09800
H151        H  0.17594314  0.15766271  0.13447496     0.10800
H152        H  0.24300175  0.09862419  0.05799083     0.16600
C153        C  0.82547157  0.06826930  0.32299513    -0.01600
C154        C  0.83743896  0.07948788  0.35392951     0.07000
C155        C  0.86243018  0.06537412  0.35930442    -0.07500
C156        C  0.87579035  0.04128203  0.33418542     0.04500
C157        C  0.86409507  0.03108821  0.30259143    -0.14800
C158        C  0.83878237  0.04436802  0.29773777    -0.08100
C159        C  0.82436127  0.10662616  0.38076852     0.05400
C160        C  0.80321166  0.08773751  0.39696724    -0.09200
C161        C  0.78998667  0.11277073  0.42176944     0.00400
C162        C  0.79799782  0.15801093  0.43093578     0.00300
C163        C  0.81956843  0.17627913  0.41490955    -0.12800
C164        C  0.83264620  0.15118222  0.39009028     0.00700
C165        C  0.76834243  0.09074175  0.43703595     0.40000
C166        C  0.85405406  0.17251262  0.37369333     0.36600
C167        C  0.79977067  0.08212917  0.31620169     0.36400
C168        C  0.90113136  0.02643829  0.34225057     0.37100
N169        N  0.75100297  0.07287320  0.44913665    -0.43700
N170        N  0.87120868  0.18950654  0.36049676    -0.44100
N171        N  0.92141073  0.01455391  0.34888896    -0.41500
N172        N  0.77915176  0.09317115  0.31083660    -0.42900
H173        H  0.82940485  0.03687984  0.27384835     0.13300
H174        H  0.87152648  0.07323870  0.38334406     0.09800
H175        H  0.79695187  0.05324384  0.39004375     0.10800
H176        H  0.82613572  0.21073851  0.42129783     0.16600
C177        C  0.65778352  0.37315468  0.33884285    -0.01600
C178        C  0.68417595  0.36833455  0.33843142     0.07000
C179        C  0.69807771  0.38882154  0.31229197    -0.07500
C180        C  0.68623654  0.41517714  0.28705224     0.04500
C181        C  0.65957340  0.42108127  0.28747790    -0.14800
C182        C  0.64572956  0.39907168  0.31348678    -0.08100
C183        C  0.69789893  0.34467651  0.36624295     0.05400
C184        C  0.69658860  0.29635419  0.36910618    -0.09200
C185        C  0.70950346  0.27315525  0.39514639     0.00400
C186        C  0.72383024  0.29871223  0.41900568     0.00300
C187        C  0.72532363  0.34703604  0.41567865    -0.12800
C188        C  0.71251055  0.37006781  0.38964032     0.00700
C189        C  0.70865883  0.22317566  0.39582490     0.40000
C190        C  0.71417516  0.41991758  0.38781394     0.36600
C191        C  0.64284555  0.35350387  0.36590782     0.36400
C192        C  0.70243875  0.43623234  0.26197261     0.37100
N193        N  0.70812394  0.18311613  0.39627514    -0.43700
N194        N  0.71547738  0.45985550  0.38626454    -0.44100
N195        N  0.71587694  0.45301371  0.24236241    -0.41500
N196        N  0.63097000  0.33782026  0.38771523    -0.42900
H197        H  0.62540728  0.40288659  0.31468136     0.13300
H198        H  0.71845143  0.38503383  0.31212680     0.09800
H199        H  0.68566874  0.27677416  0.35073340     0.10800
H200        H  0.73620761  0.36704443  0.43384080     0.16600
C201        C  0.36075604  0.40982058  0.15025002    -0.01600
C202        C  0.33645022  0.39213401  0.15671637     0.07000
C203        C  0.32532828  0.39991709  0.18851107    -0.07500
C204        C  0.33796018  0.42491491  0.21382271     0.04500
C205        C  0.36241128  0.44282922  0.20746347    -0.14800
C206        C  0.37347074  0.43480110  0.17548688    -0.08100
C207        C  0.32258996  0.36424080  0.13105769     0.05400
C208        C  0.33293295  0.32210736  0.12017848    -0.09200
C209        C  0.32055178  0.29454538  0.09609339     0.00400
C210        C  0.29701862  0.30898589  0.08243801     0.00300
C211        C  0.28662901  0.35113999  0.09389154    -0.12800
C212        C  0.29915120  0.37865130  0.11783938     0.00700
C213        C  0.33273533  0.25193110  0.08610691     0.40000
C214        C  0.28789009  0.42216924  0.12775009     0.36600
C215        C  0.37286315  0.40347107  0.11770506     0.36400
C216        C  0.32560231  0.42977367  0.24633425     0.37100
N217        N  0.34264749  0.21786684  0.07820586    -0.43700
N218        N  0.27885959  0.45702090  0.13570673    -0.44100
N219        N  0.31561868  0.43353958  0.27234333    -0.41500
N220        N  0.38257710  0.39830248  0.09164457    -0.42900
H221        H  0.39207948  0.44840008  0.16997235     0.13300
H222        H  0.30679689  0.38571493  0.19373495     0.09800
H223        H  0.35083599  0.31068465  0.13064119     0.10800
H224        H  0.26874234  0.36321549  0.08383281     0.16600
C225        C  0.48253460  0.46239152  0.22679515    -0.01600
C226        C  0.49778097  0.48905637  0.24857582     0.07000
C227        C  0.48636895  0.51899346  0.27195774    -0.07500
C228        C  0.46005509  0.52231579  0.27433286     0.04500
C229        C  0.44447702  0.49428720  0.25331394    -0.14800
C230        C  0.45624700  0.46489565  0.22945556    -0.08100
C231        C  0.52571065  0.48676523  0.24702890     0.05400
C232        C  0.53802245  0.50352701  0.21810249    -0.09200
C233        C  0.56434231  0.50207889  0.21550087     0.00400
C234        C  0.57902772  0.48371245  0.24261301     0.00300
C235        C  0.56642122  0.46682719  0.27157273    -0.12800
C236        C  0.54006865  0.46821994  0.27392858     0.00700
C237        C  0.57534469  0.51874032  0.18422936     0.40000
C238        C  0.52808986  0.44946049  0.30385662     0.36600
C239        C  0.49346194  0.43164404  0.20185424     0.36400
C240        C  0.45002450  0.55591809  0.29790292     0.37100
N241        N  0.58406403  0.53214378  0.15912738    -0.43700
N242        N  0.51841708  0.43439097  0.32777474    -0.44100
N243        N  0.44228926  0.58325227  0.31673070    -0.41500
N244        N  0.50224315  0.40720008  0.18176791    -0.42900
H245        H  0.44496611  0.44333300  0.21279049     0.13300
H246        H  0.49816045  0.54029074  0.28820780     0.09800
H247        H  0.52693137  0.51772025  0.19736381     0.10800
H248        H  0.57711951  0.45251866  0.29260971     0.16600
C249        C  0.80160214  0.87370843  0.10435838    -0.01600
C250        C  0.82372193  0.85714126  0.12003951     0.07000
C251        C  0.83325894  0.81370730  0.11067090    -0.07500
C252        C  0.82126931  0.78681729  0.08577577     0.04500
C253        C  0.79918857  0.80363043  0.06941098    -0.14800
C254        C  0.78964213  0.84716201  0.07932107    -0.06500
C255        C  0.83715185  0.88455803  0.14636813     0.05400
C256        C  0.82536180  0.89269757  0.17768555    -0.09200
C257        C  0.83750696  0.91788869  0.20337903     0.00400
C258        C  0.86206696  0.93578186  0.19782020     0.00300
C259        C  0.87371696  0.92751242  0.16622377    -0.12800
C260        C  0.86155132  0.90217876  0.14070006     0.00700
C261        C  0.82455710  0.92299702  0.23543863     0.40000
C262        C  0.87431774  0.89531565  0.10867068     0.36600
C263        C  0.79111948  0.91833858  0.11305519     0.36400
C264        C  0.83206401  0.74206782  0.07821657     0.37100
N265        N  0.81413431  0.92694925  0.26111735    -0.43700
N266        N  0.88454326  0.88973549  0.08301442    -0.44100
N267        N  0.84080598  0.70619114  0.07240260    -0.41500
N268        N  0.78271827  0.95406484  0.12011665    -0.42900
H269        H  0.77280260  0.86093442  0.06734484     0.13300
H270        H  0.85013410  0.80067768  0.12305457     0.09800
H271        H  0.80667682  0.87871339  0.18220180     0.10800
H272        H  0.89242444  0.94105720  0.16124390     0.16600
C273        C  0.68576709  0.62677150  0.08570667    -0.01600
C274        C  0.69791161  0.61190005  0.11570372     0.07000
C275        C  0.72342701  0.62250808  0.12086829    -0.07500
C276        C  0.73692118  0.64782237  0.09664257     0.04500
C277        C  0.72476754  0.66280688  0.06665351    -0.14800
C278        C  0.69918237  0.65250270  0.06162279    -0.08100
C279        C  0.68445436  0.58473147  0.14188301     0.05400
C280        C  0.69072660  0.53794156  0.14619111    -0.09200
C281        C  0.67829294  0.51081229  0.17039272     0.00400
C282        C  0.65948293  0.53086138  0.19109286     0.00300
C283        C  0.65317663  0.57769406  0.18666224    -0.12800
C284        C  0.66557796  0.60475445  0.16239425     0.00700
C285        C  0.68406546  0.46199050  0.17198178     0.40000
C286        C  0.65895343  0.65308662  0.15932034     0.36600
C287        C  0.65983514  0.61478984  0.07869957     0.36400
C288        C  0.76285979  0.65967936  0.10377158     0.37100
N289        N  0.68856598  0.42279560  0.17306313    -0.43700
N290        N  0.65365552  0.69181851  0.15679198    -0.44100
N291        N  0.78359472  0.66940147  0.10959828    -0.41500
N292        N  0.63907264  0.60502962  0.07309310    -0.42900
H293        H  0.68983530  0.66368798  0.03847074     0.13300
H294        H  0.73273297  0.61126880  0.14403658     0.09800
H295        H  0.70504790  0.52242108  0.13012235     0.10800
H296        H  0.63870146  0.59327567  0.20245051     0.16600
C297        C  0.68410723  0.46182474  0.62929813    -0.01600
C298        C  0.67946610  0.41366102  0.62764376     0.07000
C299        C  0.66183811  0.39405730  0.65001204    -0.07500
C300        C  0.64901214  0.42142042  0.67375790     0.04500
C301        C  0.65413038  0.46927214  0.67596187    -0.14800
C302        C  0.67172741  0.48904913  0.65369232    -0.08100
C303        C  0.69373877  0.38274880  0.60414024     0.05400
C304        C  0.72016769  0.38140745  0.60641005    -0.09200
C305        C  0.73442190  0.35224716  0.58541559     0.00400
C306        C  0.72219403  0.32305476  0.56172807     0.00300
C307        C  0.69571021  0.32380088  0.55986659    -0.12800
C308        C  0.68148148  0.35346003  0.58058530     0.00700
C309        C  0.76148168  0.35178126  0.58971494     0.40000
C310        C  0.65440020  0.35410137  0.57651603     0.36600
C311        C  0.70100188  0.48418148  0.60568111     0.36400
C312        C  0.63152189  0.39923050  0.69667899     0.37100
N313        N  0.78316382  0.35141403  0.59321742    -0.43700
N314        N  0.63269752  0.35456916  0.57325359    -0.44100
N315        N  0.61749008  0.38168298  0.71513558    -0.41500
N316        N  0.71449239  0.50194759  0.58661222    -0.42900
H317        H  0.67554057  0.52588467  0.65508053     0.13300
H318        H  0.65842792  0.35705738  0.64934312     0.09800
H319        H  0.72970773  0.40293973  0.62498989     0.10800
H320        H  0.68609173  0.30182551  0.54164164     0.16600
C321        C  0.69909626  0.67818359  0.86859676    -0.01600
C322        C  0.69949782  0.62997991  0.86304616     0.07000
C323        C  0.71351579  0.60165868  0.88510734    -0.07500
C324        C  0.72661631  0.62058866  0.91286657     0.04500
C325        C  0.72565942  0.66884526  0.91898319    -0.14800
C326        C  0.71184397  0.69703571  0.89649622    -0.08100
C327        C  0.68532837  0.60854607  0.83443657     0.05400
C328        C  0.69868087  0.58720218  0.80800425    -0.09200
C329        C  0.68606434  0.56702333  0.78032318     0.00400
C330        C  0.65925369  0.56757639  0.77888086     0.00300
C331        C  0.64608655  0.58928217  0.80567830    -0.12800
C332        C  0.65877614  0.60936998  0.83317886     0.00700
C333        C  0.70142117  0.54624810  0.75413917     0.40000
C334        C  0.64406834  0.62973575  0.86023799     0.36600
C335        C  0.68628476  0.70914411  0.84546491     0.36400
C336        C  0.74015802  0.58950866  0.93511924     0.37100
N337        N  0.71389353  0.52971482  0.73326304    -0.43700
N338        N  0.63228083  0.64616908  0.88185770    -0.44100
N339        N  0.75102610  0.56454298  0.95290911    -0.41500
N340        N  0.67604796  0.73392981  0.82688600    -0.42900
H341        H  0.71134717  0.73421611  0.90033913     0.13300
H342        H  0.71395196  0.56456377  0.88083467     0.09800
H343        H  0.71913840  0.58663167  0.80891586     0.10800
H344        H  0.62564291  0.59028759  0.80557857     0.16600
C345        C  0.33602730  0.32358524  0.90354588    -0.01600
C346        C  0.32807590  0.36752742  0.89249671     0.07000
C347        C  0.30582802  0.38660748  0.90565237    -0.07500
C348        C  0.29130751  0.36240764  0.92952365     0.04500
C349        C  0.29895465  0.31765039  0.94035584    -0.14800
C350        C  0.32156121  0.29916093  0.92720127    -0.08100
C351        C  0.34174186  0.39264287  0.86538930     0.05400
C352        C  0.33162416  0.39215294  0.83254137    -0.09200
C353        C  0.34379526  0.41484311  0.80581814     0.00400
C354        C  0.36656764  0.43914842  0.81187523     0.00300
C355        C  0.37690614  0.43885623  0.84482961    -0.12800
C356        C  0.36462869  0.41597298  0.87155890     0.00700
C357        C  0.33282347  0.41114343  0.77229870     0.40000
C358        C  0.37546249  0.41768144  0.90522531     0.36600
C359        C  0.35860583  0.30231979  0.89018243     0.36400
C360        C  0.26881426  0.38473740  0.94219216     0.37100
N361        N  0.32399742  0.40806436  0.74546963    -0.43700
N362        N  0.38407654  0.41903019  0.93225479    -0.44100
N363        N  0.25083295  0.40286248  0.95228892    -0.41500
N364        N  0.37670187  0.28531207  0.87945605    -0.42900
H365        H  0.32795559  0.26512010  0.93503079     0.13300
H366        H  0.29970760  0.42047460  0.89698973     0.09800
H367        H  0.31420771  0.37353678  0.82773744     0.10800
H368        H  0.39425080  0.45750606  0.84992730     0.16600
C369        C  0.48500763  0.46530698  0.76059913    -0.01600
C370        C  0.49639297  0.50626817  0.74856073     0.07000
C371        C  0.48127410  0.54473195  0.74113707    -0.07500
C372        C  0.45508357  0.54297109  0.74534528     0.04500
C373        C  0.44346715  0.50171461  0.75688565    -0.14800
C374        C  0.45874980  0.46338837  0.76482581    -0.08100
C375        C  0.52408390  0.51021733  0.74388187     0.05400
C376        C  0.53389240  0.51352180  0.71086501    -0.09200
C377        C  0.55991368  0.51814281  0.70543754     0.00400
C378        C  0.57660544  0.51962609  0.73351868     0.00300
C379        C  0.56657749  0.51745238  0.76655346    -0.12800
C380        C  0.54060659  0.51275213  0.77188880     0.00700
C381        C  0.56878196  0.52319467  0.67093438     0.40000
C382        C  0.53125956  0.51140662  0.80633011     0.36600
C383        C  0.49984758  0.42453199  0.76786624     0.36400
C384        C  0.44078164  0.58462603  0.73874272     0.37100
N385        N  0.57583422  0.52744978  0.64327516    -0.43700
N386        N  0.52371614  0.51031572  0.83391065    -0.44100
N387        N  0.42934821  0.61805187  0.73353431    -0.41500
N388        N  0.51178546  0.39189571  0.77367428    -0.42900
H389        H  0.45012596  0.43146084  0.77345898     0.13300
H390        H  0.49004874  0.57645445  0.73233678     0.09800
H391        H  0.52113420  0.51259644  0.68928892     0.10800
H392        H  0.57909667  0.51873682  0.78836143     0.16600
C393        C  0.19580102  0.88637357  0.31979187    -0.01600
C394        C  0.18461821  0.87750344  0.35153609     0.07000
C395        C  0.15992377  0.89260299  0.35771639    -0.07500
C396        C  0.14618641  0.91629559  0.33274116     0.04500
C397        C  0.15722498  0.92498418  0.30054357    -0.14800
C398        C  0.18212891  0.90983577  0.29468724    -0.08100
C399        C  0.19828983  0.85237039  0.37872149     0.05400
C400        C  0.21823783  0.87433224  0.39562739    -0.09200
C401        C  0.23101025  0.85230465  0.42233954     0.00400
C402        C  0.22384700  0.80703071  0.43244500     0.00300
C403        C  0.20393342  0.78515555  0.41496486    -0.12800
C404        C  0.19119557  0.80737167  0.38843582     0.00700
C405        C  0.25081641  0.87777864  0.43922810     0.40000
C406        C  0.17108579  0.78311897  0.37120018     0.36600
C407        C  0.22107055  0.87080064  0.31217326     0.36400
C408        C  0.12123563  0.93237613  0.34158257     0.37100
N409        N  0.26664797  0.89840200  0.45269789    -0.43700
N410        N  0.15496863  0.76376698  0.35734203    -0.44100
N411        N  0.10126957  0.94521647  0.34888410    -0.41500
N412        N  0.24131401  0.85829553  0.30605628    -0.42900
H413        H  0.19097431  0.91583543  0.27024155     0.13300
H414        H  0.15143361  0.88610205  0.38234189     0.09800
H415        H  0.22358040  0.90913925  0.38820400     0.10800
H416        H  0.19822525  0.75038289  0.42190042     0.16600
C417        C  0.32408151  0.66059802  0.62712961    -0.01600
C418        C  0.31794718  0.61422407  0.63443480     0.07000
C419        C  0.29813542  0.59290900  0.61684710    -0.07500
C420        C  0.28484919  0.61664448  0.59142024     0.04500
C421        C  0.29128988  0.66307674  0.58342207    -0.14800
C422        C  0.31084441  0.68448318  0.60184307    -0.08100
C423        C  0.33236226  0.58711954  0.65988113     0.05400
C424        C  0.32061825  0.57422836  0.69031249    -0.09200
C425        C  0.33394345  0.55018609  0.71555910     0.00400
C426        C  0.35970407  0.53868756  0.71042918     0.00300
C427        C  0.37110785  0.55085070  0.67939537    -0.12800
C428        C  0.35766526  0.57446337  0.65419090     0.00700
C429        C  0.32073748  0.53931597  0.74664014     0.40000
C430        C  0.37007992  0.58465489  0.62239886     0.36600
C431        C  0.34380845  0.68445646  0.64543230     0.36400
C432        C  0.26542184  0.59161272  0.57339564     0.37100
N433        N  0.31003204  0.53058903  0.77145316    -0.43700
N434        N  0.37997061  0.59277547  0.59687934    -0.44100
N435        N  0.24990085  0.57131807  0.55902648    -0.41500
N436        N  0.35966215  0.70348115  0.66006602    -0.42900
H437        H  0.31590220  0.72013407  0.59653516     0.13300
H438        H  0.29341894  0.55718201  0.62252872     0.09800
H439        H  0.30106726  0.58371927  0.69455558     0.10800
H440        H  0.39060958  0.54162030  0.67456650     0.16600
C441        C  0.33256088  0.65497273  0.40178338    -0.01600
C442        C  0.32322711  0.61381109  0.38739716     0.07000
C443        C  0.30001971  0.59625345  0.39851285    -0.07500
C444        C  0.28592370  0.61921470  0.42351707     0.04500
C445        C  0.29516473  0.66085820  0.43808870    -0.14800
C446        C  0.31863493  0.67793760  0.42684104    -0.08100
C447        C  0.33729124  0.58882636  0.36043608     0.05400
C448        C  0.36036797  0.56765409  0.36847554    -0.09200
C449        C  0.37411249  0.54352242  0.34373601     0.00400
C450        C  0.36477336  0.54058755  0.31009735     0.00300
C451        C  0.34155769  0.56163947  0.30226099    -0.12800
C452        C  0.32787512  0.58570649  0.32700756     0.00700
C453        C  0.39697735  0.52021510  0.35409127     0.40000
C454        C  0.30452202  0.60791536  0.31734004     0.36600
C455        C  0.35602102  0.67510255  0.39043773     0.36400
C456        C  0.26208876  0.59902540  0.43321280     0.37100
N457        N  0.41523363  0.50141588  0.36254123    -0.43700
N458        N  0.28581924  0.62578805  0.30963101    -0.44100
N459        N  0.24299106  0.58262417  0.44078976    -0.41500
N460        N  0.37478750  0.69126188  0.38126679    -0.42900
H461        H  0.32617318  0.70975523  0.43733631     0.13300
H462        H  0.29286036  0.56445690  0.38745399     0.09800
H463        H  0.36747755  0.56952913  0.39431085     0.10800
H464        H  0.33419516  0.55982661  0.27655453     0.16600
C465        C  0.79628134  0.13569713  0.62777633    -0.01600
C466        C  0.82286687  0.13421873  0.62876946     0.07000
C467        C  0.83670657  0.15637028  0.60316239    -0.07500
C468        C  0.82448219  0.17933707  0.57648391     0.04500
C469        C  0.79779658  0.18031125  0.57516535    -0.14800
C470        C  0.78400605  0.15845877  0.60106153    -0.08100
C471        C  0.83655185  0.10722609  0.65504396     0.05400
C472        C  0.83278090  0.05920255  0.65650507    -0.09200
C473        C  0.84542374  0.03212267  0.68054396     0.00400
C474        C  0.86244492  0.05308737  0.70339926     0.00300
C475        C  0.86661638  0.10098017  0.70160955    -0.12800
C476        C  0.85364881  0.12822313  0.67783730     0.00700
C477        C  0.84137212  0.98267961  0.68038861     0.40000
C478        C  0.85755493  0.17769251  0.67797330     0.36600
C479        C  0.78123612  0.11447886  0.65408539     0.36400
C480        C  0.83983998  0.19926572  0.54994705     0.37100
N481        N  0.83820952  0.94303942  0.68022522    -0.43700
N482        N  0.86060244  0.21736542  0.67811569    -0.44100
N483        N  0.85216154  0.21510486  0.52865070    -0.41500
N484        N  0.76923986  0.09741753  0.67520359    -0.42900
H485        H  0.76355129  0.15929153  0.60051836     0.13300
H486        H  0.85715175  0.15462998  0.60356743     0.09800
H487        H  0.82002606  0.04281045  0.63859733     0.10800
H488        H  0.87961772  0.11720735  0.71927380     0.16600
C489        C  0.79661305  0.84556176  0.86895980    -0.01600
C490        C  0.82273961  0.85483671  0.87037979     0.07000
C491        C  0.83684603  0.83845679  0.89814692    -0.07500
C492        C  0.82537775  0.81319740  0.92424115     0.04500
C493        C  0.79917025  0.80491706  0.92312665    -0.14800
C494        C  0.78505181  0.82127021  0.89543732    -0.08100
C495        C  0.83547725  0.88348356  0.84416636     0.05400
C496        C  0.82680338  0.92872955  0.83830796    -0.09200
C497        C  0.83893678  0.95780192  0.81508836     0.00400
C498        C  0.86056608  0.94189916  0.79771737     0.00300
C499        C  0.86921189  0.89664267  0.80348642    -0.12800
C500        C  0.85674080  0.86724552  0.82616063     0.00700
C501        C  0.82953804  0.00440321  0.81086151     0.40000
C502        C  0.86579148  0.82035831  0.82998745     0.36600
C503        C  0.78140118  0.85959241  0.84026705     0.36400
C504        C  0.84066906  0.79798204  0.95253647     0.37100
N505        N  0.82198126  0.04173877  0.80749578    -0.43700
N506        N  0.87303688  0.78276442  0.83300619    -0.44100
N507        N  0.85292519  0.78582365  0.97521951    -0.41500
N508        N  0.76919725  0.87075374  0.81726274    -0.42900
H509        H  0.76490649  0.81431840  0.89422052     0.13300
H510        H  0.85690019  0.84611256  0.89969976     0.09800
H511        H  0.81065400  0.94174954  0.85251031     0.10800
H512        H  0.88571643  0.88397522  0.78986728     0.16600
C513        C  0.18934993  0.93724398  0.66430278    -0.01600
C514        C  0.18200422  0.89204964  0.65488802     0.07000
C515        C  0.16201149  0.87073446  0.67219522    -0.07500
C516        C  0.14909119  0.89390780  0.69815036     0.04500
C517        C  0.15628084  0.93927318  0.70740161    -0.14800
C518        C  0.17661440  0.96027712  0.69056194    -0.08100
C519        C  0.19532097  0.86571645  0.62780817     0.05400
C520        C  0.22084109  0.85434199  0.63239629    -0.09200
C521        C  0.23379094  0.82782968  0.60823645     0.00400
C522        C  0.22108526  0.81188346  0.57890933     0.00300
C523        C  0.19552895  0.82304056  0.57436807    -0.12800
C524        C  0.18266801  0.85009670  0.59835207     0.00700
C525        C  0.25975597  0.81555203  0.61492527     0.40000
C526        C  0.15671400  0.86248788  0.59179375     0.36600
C527        C  0.20927544  0.96125093  0.64659841     0.36400
C528        C  0.12919775  0.86965526  0.71575563     0.37100
N529        N  0.28052604  0.80549363  0.62028635    -0.43700
N530        N  0.13593770  0.87260483  0.58654769    -0.44100
N531        N  0.11333241  0.85009168  0.72992588    -0.41500
N532        N  0.22519272  0.98055789  0.63234467    -0.42900
H533        H  0.18212987  0.99524969  0.69732769     0.13300
H534        H  0.15661602  0.83566260  0.66553269     0.09800
H535        H  0.23054948  0.86559697  0.65523376     0.10800
H536        H  0.18573111  0.81131186  0.55172836     0.16600
C537        C  0.19574407  0.07683409  0.82729879    -0.01600
C538        C  0.18393421  0.09223685  0.85730383     0.07000
C539        C  0.15840801  0.08236994  0.86259022    -0.07500
C540        C  0.14452688  0.05706007  0.83869241     0.04500
C541        C  0.15625065  0.04147799  0.80827014    -0.14800
C542        C  0.18194656  0.05166720  0.80319877    -0.08100
C543        C  0.19778265  0.11893747  0.88354145     0.05400
C544        C  0.19131652  0.16538611  0.88899742    -0.09200
C545        C  0.20384064  0.19193738  0.91356725     0.00400
C546        C  0.22342180  0.17182864  0.93328211     0.00300
C547        C  0.22961672  0.12500125  0.92780267    -0.12800
C548        C  0.21687091  0.09851189  0.90346326     0.00700
C549        C  0.19631549  0.23973633  0.91737028     0.40000
C550        C  0.22312073  0.05004597  0.90009671     0.36600
C551        C  0.22187223  0.08732456  0.82041613     0.36400
C552        C  0.11858177  0.04678373  0.84697595     0.37100
N553        N  0.19016496  0.27798479  0.92037751    -0.43700
N554        N  0.22804458  0.01117347  0.89739341    -0.44100
N555        N  0.09781656  0.03869936  0.85383628    -0.41500
N556        N  0.24283269  0.09572519  0.81503397    -0.42900
H557        H  0.19131258  0.04051112  0.78011772     0.13300
H558        H  0.14937077  0.09407126  0.88579729     0.09800
H559        H  0.17647464  0.18099998  0.87381467     0.10800
H560        H  0.24415842  0.10859831  0.94303291     0.16600
C561        C  0.03615581  0.95451679  0.74455259    -0.01600
C562        C  0.02273464  0.99432818  0.75457560     0.07000
C563        C  0.03591845  0.03384880  0.76489563    -0.07500
C564        C  0.06230038  0.03435574  0.76526183     0.04500
C565        C  0.07594987  0.99437776  0.75533800    -0.14800
C566        C  0.06256732  0.95486640  0.74483194    -0.08100
C567        C  0.99486847  0.99577784  0.75419257     0.05400
C568        C  0.98181405  0.99214837  0.78499739    -0.09200
C569        C  0.95542678  0.99376408  0.78575612     0.00400
C570        C  0.94171311  0.99953783  0.75513594     0.00300
C571        C  0.95497794  0.00396587  0.72439058    -0.12800
C572        C  0.98133844  0.00187931  0.72370428     0.00700
C573        C  0.94307379  0.99090741  0.81839858     0.40000
C574        C  0.99416608  0.00628877  0.69150897     0.36600
C575        C  0.02316138  0.91277427  0.73452318     0.36400
C576        C  0.07469839  0.07701311  0.77462293     0.37100
N577        N  0.93320882  0.98859871  0.84457694    -0.43700
N578        N  0.00449584  0.00972926  0.66573391    -0.44100
N579        N  0.08456918  0.11126396  0.78210500    -0.41500
N580        N  0.01268355  0.87934132  0.72657785    -0.42900
H581        H  0.07273418  0.92389253  0.73737961     0.13300
H582        H  0.02550714  0.06459432  0.77230911     0.09800
H583        H  0.99231419  0.98802236  0.80849246     0.10800
H584        H  0.94472901  0.00826200  0.70072283     0.16600
loop_ 
_geom_bond_atom_site_label_1 
_geom_bond_atom_site_label_2 
_geom_bond_distance 
_geom_bond_site_symmetry_2 
_ccdc_geom_bond_type 
C1            N2   1.362   1_545  A
C1            N6   1.356       .  A
C1          C541   1.492       .  S
N2            C3   1.361       .  A
C3            N4   1.359       .  A
C3          C517   1.479       .  S
N4            C5   1.357       .  A
C5            N6   1.355   1_565  A
C5          C565   1.482       .  S
C7            N8   1.356       .  A
C7           N12   1.356       .  A
C7          C498   1.475       .  S
N8            C9   1.357   1_565  A
C9           N10   1.359       .  A
C9          C570   1.481   1_545  S
N10          C11   1.357       .  A
C11          N12   1.357   1_545  A
C11         C474   1.472       .  S
O13         Ni21   1.912       .  S
O13          C23   1.280       .  A
O14         Ni21   1.911       .  S
O14          C24   1.281       .  A
O15         Ni21   1.919       .  S
O15          C25   1.282       .  A
O16         Ni21   1.916       .  S
O16          C26   1.282       .  A
O17         Ni22   1.915       .  S
O17          C26   1.280       .  A
O18         Ni22   1.911       .  S
O18          C25   1.281       .  A
O19         Ni22   1.923       .  S
O19          C24   1.282       .  A
O20         Ni22   1.923       .  S
O20          C23   1.282       .  A
Ni21        Ni22   2.383       .  S
C23         C522   1.478       .  S
C24         C445   1.494       .  S
C25         C402   1.490       .  S
C26         C421   1.489       .  S
C27          N28   1.354       .  A
C27          N32   1.356       .  A
C27         C426   1.489       .  S
N28          C29   1.358       .  A
C29          N30   1.362       .  A
C29         C354   1.484       .  S
N30          C31   1.362       .  A
C31          N32   1.357       .  A
C31         C373   1.485       .  S
C33          N34   1.357       .  A
C33          N38   1.359       .  A
C33         C301   1.477       .  S
N34          C35   1.357       .  A
C35          N36   1.358       .  A
C35         C378   1.484       .  S
N36          C37   1.361       .  A
C37          N38   1.361       .  A
C37         C330   1.500       .  S
O39         Ni47   1.913   1_554  S
O39          C49   1.280       .  A
O40         Ni47   1.914       .  S
O40          C50   1.280       .  A
O41         Ni47   1.919   1_554  S
O41          C51   1.282       .  A
O42         Ni47   1.926       .  S
O42          C52   1.283       .  A
O43         Ni48   1.910       .  S
O43          C52   1.281       .  A
O44         Ni48   1.917   1_554  S
O44          C51   1.282       .  A
O45         Ni48   1.913       .  S
O45          C50   1.280       .  A
O46         Ni48   1.915   1_554  S
O46          C49   1.280       .  A
Ni47        Ni48   2.387       .  S
C49         C277   1.471       .  S
C50         C493   1.473       .  S
C51         C253   1.494       .  S
C52         C325   1.486       .  S
C53          N54   1.356       .  A
C53          N58   1.359       .  A
C53         C205   1.489       .  S
N54          C55   1.357       .  A
C55          N56   1.359       .  A
C55         C450   1.482       .  S
N56          C57   1.360       .  A
C57          N58   1.360       .  A
C57         C229   1.496       .  S
C59          N60   1.356       .  A
C59          N64   1.353       .  A
C59         C282   1.474       .  S
N60          C61   1.358       .  A
C61          N62   1.363       .  A
C61         C181   1.497       .  S
N62          C63   1.361       .  A
C63          N64   1.356       .  A
C63         C234   1.493       .  S
O65         Ni73   1.917       .  S
O65          C75   1.282       .  A
O66         Ni73   1.915       .  S
O66          C76   1.281       .  A
O67         Ni73   1.918       .  S
O67          C77   1.281       .  A
O68         Ni73   1.920       .  S
O68          C78   1.282       .  A
O69         Ni74   1.918       .  S
O69          C78   1.282       .  A
O70         Ni74   1.918       .  S
O70          C77   1.283       .  A
O71         Ni74   1.912       .  S
O71          C76   1.281       .  A
O72         Ni74   1.911       .  S
O72          C75   1.280       .  A
Ni73        Ni74   2.385       .  S
C75         C469   1.480       .  S
C76         C186   1.478       .  S
C77         C162   1.495       .  S
C78         C306   1.484       .  S
O79         Ni87   1.914       .  S
O79          C89   1.282       .  A
O80         Ni87   1.914   1_556  S
O80          C90   1.280       .  A
O81         Ni87   1.919       .  S
O81          C91   1.282       .  A
O82         Ni87   1.920   1_556  S
O82          C92   1.282       .  A
O83         Ni88   1.909   1_556  S
O83          C92   1.281       .  A
O84         Ni88   1.908       .  S
O84          C91   1.280       .  A
O85         Ni88   1.917   1_556  S
O85          C90   1.282       .  A
O86         Ni88   1.917       .  S
O86          C89   1.281       .  A
Ni87        Ni88   2.382       .  S
C89         C210   1.493       .  S
C90         C546   1.488       .  S
C91         C138   1.485       .  S
C92         C349   1.492       .  S
C93          N94   1.356       .  A
C93          N98   1.356       .  A
C93         C133   1.486   1_565  S
N94          C95   1.355       .  A
C95          N96   1.360       .  A
C95         C109   1.490       .  S
N96          C97   1.360       .  A
C97          N98   1.359       .  A
C97         C397   1.489       .  S
C99         N100   1.360       .  A
C99         N104   1.358       .  A
C99         C258   1.491       .  S
N100        C101   1.360   1_565  A
C101        N102   1.358       .  A
C101        C157   1.491       .  S
N102        C103   1.357   1_545  A
C103        N104   1.357       .  A
C103        C114   1.486       .  S
C105        C106   1.408       .  A
C105        C110   1.400       .  A
C105        C119   1.444       .  S
C106        C111   1.481   1_455  S
C106        C107   1.399   1_565  A
C107        C108   1.399       .  A
C107        H126   1.085       .  S
C108        C109   1.421   1_545  A
C108        C120   1.445       .  S
C109        C110   1.408       .  A
C110        H125   1.084       .  S
C111        C112   1.401   1_565  A
C111        C116   1.408       .  A
C112        C113   1.400       .  A
C112        H127   1.085       .  S
C113        C114   1.417   1_545  A
C113        C117   1.444       .  S
C114        C115   1.408       .  A
C115        C116   1.399       .  A
C115        H128   1.084       .  S
C116        C118   1.444       .  S
C117        N121   1.157       .  T
C118        N122   1.157   1_655  T
C119        N124   1.157       .  T
C120        N123   1.158       .  T
C129        C130   1.405       .  A
C129        C134   1.397       .  A
C129        C143   1.444       .  S
C130        C135   1.475       .  S
C130        C131   1.399       .  A
C131        C132   1.399       .  A
C131        H150   1.085       .  S
C132        C133   1.418       .  A
C132        C144   1.444       .  S
C133        C134   1.409       .  A
C134        H149   1.084       .  S
C135        C136   1.400       .  A
C135        C140   1.405       .  A
C136        C137   1.399       .  A
C136        H151   1.085       .  S
C137        C138   1.417       .  A
C137        C141   1.444       .  S
C138        C139   1.409       .  A
C139        C140   1.398       .  A
C139        H152   1.084       .  S
C140        C142   1.444       .  S
C141        N145   1.157       .  T
C142        N146   1.157   1_545  T
C143        N148   1.157       .  T
C144        N147   1.157       .  T
C153        C154   1.409       .  A
C153        C158   1.401       .  A
C153        C167   1.444       .  S
C154        C159   1.486       .  S
C154        C155   1.401       .  A
C155        C156   1.401       .  A
C155        H174   1.085       .  S
C156        C157   1.419       .  A
C156        C168   1.444       .  S
C157        C158   1.408       .  A
C158        H173   1.084       .  S
C159        C160   1.401       .  A
C159        C164   1.409       .  A
C160        C161   1.402       .  A
C160        H175   1.085       .  S
C161        C162   1.421       .  A
C161        C165   1.444       .  S
C162        C163   1.409       .  A
C163        C164   1.400       .  A
C163        H176   1.084       .  S
C164        C166   1.444       .  S
C165        N169   1.157       .  T
C166        N170   1.157       .  T
C167        N172   1.157       .  T
C168        N171   1.157       .  T
C177        C178   1.406       .  A
C177        C182   1.400       .  A
C177        C191   1.444       .  S
C178        C183   1.480       .  S
C178        C179   1.398       .  A
C179        C180   1.399       .  A
C179        H198   1.085       .  S
C180        C181   1.423       .  A
C180        C192   1.444       .  S
C181        C182   1.411       .  A
C182        H197   1.084       .  S
C183        C184   1.402       .  A
C183        C188   1.409       .  A
C184        C185   1.401       .  A
C184        H199   1.085       .  S
C185        C186   1.415       .  A
C185        C189   1.444       .  S
C186        C187   1.404       .  A
C187        C188   1.396       .  A
C187        H200   1.085       .  S
C188        C190   1.444       .  S
C189        N193   1.157       .  T
C190        N194   1.157       .  T
C191        N196   1.157       .  T
C192        N195   1.157       .  T
C201        C202   1.410       .  A
C201        C206   1.400       .  A
C201        C215   1.444       .  S
C202        C207   1.486       .  S
C202        C203   1.401       .  A
C203        C204   1.400       .  A
C203        H222   1.085       .  S
C204        C205   1.418       .  A
C204        C216   1.444       .  S
C205        C206   1.407       .  A
C206        H221   1.084       .  S
C207        C208   1.401       .  A
C207        C212   1.409       .  A
C208        C209   1.401       .  A
C208        H223   1.085       .  S
C209        C210   1.420       .  A
C209        C213   1.444       .  S
C210        C211   1.410       .  A
C211        C212   1.400       .  A
C211        H224   1.084       .  S
C212        C214   1.444       .  S
C213        N217   1.157       .  T
C214        N218   1.157       .  T
C215        N220   1.157       .  T
C216        N219   1.157       .  T
C225        C226   1.407       .  A
C225        C230   1.399       .  A
C225        C239   1.444       .  S
C226        C231   1.483       .  S
C226        C227   1.400       .  A
C227        C228   1.401       .  A
C227        H246   1.085       .  S
C228        C229   1.421       .  A
C228        C240   1.444       .  S
C229        C230   1.411       .  A
C230        H245   1.084       .  S
C231        C232   1.399       .  A
C231        C236   1.408       .  A
C232        C233   1.399       .  A
C232        H247   1.085       .  S
C233        C234   1.422       .  A
C233        C237   1.445       .  S
C234        C235   1.409       .  A
C235        C236   1.400       .  A
C235        H248   1.084       .  S
C236        C238   1.444       .  S
C237        N241   1.158       .  T
C238        N242   1.157       .  T
C239        N244   1.157       .  T
C240        N243   1.157       .  T
C249        C250   1.407       .  A
C249        C254   1.400       .  A
C249        C263   1.444       .  S
C250        C255   1.485       .  S
C250        C251   1.401       .  A
C251        C252   1.402       .  A
C251        H270   1.085       .  S
C252        C253   1.420       .  A
C252        C264   1.444       .  S
C253        C254   1.410       .  A
C254        H269   1.084       .  S
C255        C256   1.402       .  A
C255        C260   1.408       .  A
C256        C257   1.402       .  A
C256        H271   1.085       .  S
C257        C258   1.418       .  A
C257        C261   1.444       .  S
C258        C259   1.409       .  A
C259        C260   1.399       .  A
C259        H272   1.084       .  S
C260        C262   1.444       .  S
C261        N265   1.157       .  T
C262        N266   1.157       .  T
C263        N268   1.157       .  T
C264        N267   1.157       .  T
C273        C274   1.410       .  A
C273        C278   1.399       .  A
C273        C287   1.444       .  S
C274        C279   1.479       .  S
C274        C275   1.402       .  A
C275        C276   1.399       .  A
C275        H294   1.085       .  S
C276        C277   1.411       .  A
C276        C288   1.444       .  S
C277        C278   1.402       .  A
C278        H293   1.085       .  S
C279        C280   1.401       .  A
C279        C284   1.410       .  A
C280        C281   1.399       .  A
C280        H295   1.085       .  S
C281        C282   1.412       .  A
C281        C285   1.444       .  S
C282        C283   1.404       .  A
C283        C284   1.399       .  A
C283        H296   1.085       .  S
C284        C286   1.444       .  S
C285        N289   1.157       .  T
C286        N290   1.157       .  T
C287        N292   1.157       .  T
C288        N291   1.157       .  T
C297        C298   1.414       .  A
C297        C302   1.403       .  A
C297        C311   1.444       .  S
C298        C303   1.491       .  S
C298        C299   1.404       .  A
C299        C300   1.400       .  A
C299        H318   1.084       .  S
C300        C301   1.411       .  A
C300        C312   1.444       .  S
C301        C302   1.402       .  A
C302        H317   1.084       .  S
C303        C304   1.404       .  A
C303        C308   1.413       .  A
C304        C305   1.401       .  A
C304        H319   1.085       .  S
C305        C306   1.414       .  A
C305        C309   1.444       .  S
C306        C307   1.406       .  A
C307        C308   1.402       .  A
C307        H320   1.085       .  S
C308        C310   1.444       .  S
C309        N313   1.157       .  T
C310        N314   1.157       .  T
C311        N316   1.157       .  T
C312        N315   1.157       .  T
C321        C322   1.409       .  A
C321        C326   1.399       .  A
C321        C335   1.444       .  S
C322        C327   1.487       .  S
C322        C323   1.404       .  A
C323        C324   1.404       .  A
C323        H342   1.085       .  S
C324        C325   1.415       .  A
C324        C336   1.444       .  S
C325        C326   1.407       .  A
C326        H341   1.085       .  S
C327        C328   1.401       .  A
C327        C332   1.408       .  A
C328        C329   1.404       .  A
C328        H343   1.085       .  S
C329        C330   1.422       .  A
C329        C333   1.444       .  S
C330        C331   1.411       .  A
C331        C332   1.399       .  A
C331        H344   1.084       .  S
C332        C334   1.445       .  S
C333        N337   1.158       .  T
C334        N338   1.157       .  T
C335        N340   1.157       .  T
C336        N339   1.157       .  T
C345        C346   1.406       .  A
C345        C350   1.398       .  A
C345        C359   1.444       .  S
C346        C351   1.480       .  S
C346        C347   1.401       .  A
C347        C348   1.402       .  A
C347        H366   1.085       .  S
C348        C349   1.420       .  A
C348        C360   1.444       .  S
C349        C350   1.410       .  A
C350        H365   1.084       .  S
C351        C352   1.398       .  A
C351        C356   1.409       .  A
C352        C353   1.398       .  A
C352        H367   1.085       .  S
C353        C354   1.417       .  A
C353        C357   1.444       .  S
C354        C355   1.407       .  A
C355        C356   1.403       .  A
C355        H368   1.084       .  S
C356        C358   1.444       .  S
C357        N361   1.157       .  T
C358        N362   1.157       .  T
C359        N364   1.157       .  T
C360        N363   1.157       .  T
C369        C370   1.411       .  A
C369        C374   1.403       .  A
C369        C383   1.444       .  S
C370        C375   1.484       .  S
C370        C371   1.400       .  A
C371        C372   1.399       .  A
C371        H390   1.085       .  S
C372        C373   1.417       .  A
C372        C384   1.445       .  S
C373        C374   1.406       .  A
C374        H389   1.084       .  S
C375        C376   1.403       .  A
C375        C380   1.408       .  A
C376        C377   1.402       .  A
C376        H391   1.085       .  S
C377        C378   1.415       .  A
C377        C381   1.444       .  S
C378        C379   1.406       .  A
C379        C380   1.399       .  A
C379        H392   1.085       .  S
C380        C382   1.444       .  S
C381        N385   1.157       .  T
C382        N386   1.157       .  T
C383        N388   1.157       .  T
C384        N387   1.157       .  T
C393        C394   1.407       .  A
C393        C398   1.399       .  A
C393        C407   1.444       .  S
C394        C399   1.481       .  S
C394        C395   1.401       .  A
C395        C396   1.400       .  A
C395        H414   1.085       .  S
C396        C397   1.418       .  A
C396        C408   1.444       .  S
C397        C398   1.409       .  A
C398        H413   1.084       .  S
C399        C400   1.401       .  A
C399        C404   1.406       .  A
C400        C401   1.402       .  A
C400        H415   1.085       .  S
C401        C402   1.419       .  A
C401        C405   1.444       .  S
C402        C403   1.409       .  A
C403        C404   1.398       .  A
C403        H416   1.084       .  S
C404        C406   1.444       .  S
C405        N409   1.157       .  T
C406        N410   1.157       .  T
C407        N412   1.157       .  T
C408        N411   1.157       .  T
C417        C418   1.408       .  A
C417        C422   1.398       .  A
C417        C431   1.444       .  S
C418        C423   1.482       .  S
C418        C419   1.400       .  A
C419        C420   1.401       .  A
C419        H438   1.085       .  S
C420        C421   1.420       .  A
C420        C432   1.444       .  S
C421        C422   1.407       .  A
C422        H437   1.085       .  S
C423        C424   1.400       .  A
C423        C428   1.408       .  A
C424        C425   1.402       .  A
C424        H439   1.085       .  S
C425        C426   1.419       .  A
C425        C429   1.444       .  S
C426        C427   1.408       .  A
C427        C428   1.397       .  A
C427        H440   1.084       .  S
C428        C430   1.444       .  S
C429        N433   1.158       .  T
C430        N434   1.157       .  T
C431        N436   1.157       .  T
C432        N435   1.157       .  T
C441        C442   1.407       .  A
C441        C446   1.399       .  A
C441        C455   1.444       .  S
C442        C447   1.484       .  S
C442        C443   1.401       .  A
C443        C444   1.402       .  A
C443        H462   1.085       .  S
C444        C445   1.420       .  A
C444        C456   1.444       .  S
C445        C446   1.410       .  A
C446        H461   1.084       .  S
C447        C448   1.403       .  A
C447        C452   1.409       .  A
C448        C449   1.401       .  A
C448        H463   1.085       .  S
C449        C450   1.415       .  A
C449        C453   1.444       .  S
C450        C451   1.406       .  A
C451        C452   1.399       .  A
C451        H464   1.085       .  S
C452        C454   1.444       .  S
C453        N457   1.157       .  T
C454        N458   1.157       .  T
C455        N460   1.157       .  T
C456        N459   1.157       .  T
C465        C466   1.410       .  A
C465        C470   1.399       .  A
C465        C479   1.444       .  S
C466        C471   1.483       .  S
C466        C467   1.402       .  A
C467        C468   1.399       .  A
C467        H486   1.085       .  S
C468        C469   1.416       .  A
C468        C480   1.445       .  S
C469        C470   1.405       .  A
C470        H485   1.085       .  S
C471        C472   1.403       .  A
C471        C476   1.411       .  A
C472        C473   1.397       .  A
C472        H487   1.085       .  S
C473        C474   1.410       .  A
C473        C477   1.444   1_545  S
C474        C475   1.403       .  A
C475        C476   1.401       .  A
C475        H488   1.085       .  S
C476        C478   1.444       .  S
C477        N481   1.157       .  T
C478        N482   1.157       .  T
C479        N484   1.157       .  T
C480        N483   1.157       .  T
C489        C490   1.412       .  A
C489        C494   1.398       .  A
C489        C503   1.444       .  S
C490        C495   1.485       .  S
C490        C491   1.405       .  A
C491        C492   1.399       .  A
C491        H510   1.088       .  S
C492        C493   1.410       .  A
C492        C504   1.444       .  S
C493        C494   1.402       .  A
C494        H509   1.088       .  S
C495        C496   1.404       .  A
C495        C500   1.412       .  A
C496        C497   1.398       .  A
C496        H511   1.089       .  S
C497        C498   1.412       .  A
C497        C501   1.444   1_565  S
C498        C499   1.403       .  A
C499        C500   1.399       .  A
C499        H512   1.089       .  S
C500        C502   1.444       .  S
C501        N505   1.157       .  T
C502        N506   1.157       .  T
C503        N508   1.157       .  T
C504        N507   1.157       .  T
C513        C514   1.412       .  A
C513        C518   1.402       .  A
C513        C527   1.444       .  S
C514        C519   1.487       .  S
C514        C515   1.403       .  A
C515        C516   1.400       .  A
C515        H534   1.085       .  S
C516        C517   1.412       .  A
C516        C528   1.444       .  S
C517        C518   1.404       .  A
C518        H533   1.085       .  S
C519        C520   1.403       .  A
C519        C524   1.412       .  A
C520        C521   1.400       .  A
C520        H535   1.085       .  S
C521        C522   1.413       .  A
C521        C525   1.445       .  S
C522        C523   1.403       .  A
C523        C524   1.402       .  A
C523        H536   1.085       .  S
C524        C526   1.444       .  S
C525        N529   1.157       .  T
C526        N530   1.157       .  T
C527        N532   1.157       .  T
C528        N531   1.157       .  T
C537        C538   1.408       .  A
C537        C542   1.400       .  A
C537        C551   1.444       .  S
C538        C543   1.483       .  S
C538        C539   1.399       .  A
C539        C540   1.400       .  A
C539        H558   1.085       .  S
C540        C541   1.422       .  A
C540        C552   1.445       .  S
C541        C542   1.408       .  A
C542        H557   1.084       .  S
C543        C544   1.401       .  A
C543        C548   1.408       .  A
C544        C545   1.401       .  A
C544        H559   1.085       .  S
C545        C546   1.419       .  A
C545        C549   1.444       .  S
C546        C547   1.408       .  A
C547        C548   1.399       .  A
C547        H560   1.084       .  S
C548        C550   1.444       .  S
C549        N553   1.157       .  T
C550        N554   1.157       .  T
C551        N556   1.157       .  T
C552        N555   1.158       .  T
C561        C562   1.408       .  A
C561        C566   1.400       .  A
C561        C575   1.444       .  S
C562        C567   1.478   1_455  S
C562        C563   1.399   1_565  A
C563        C564   1.398       .  A
C563        H582   1.085       .  S
C564        C565   1.417   1_545  A
C564        C576   1.444       .  S
C565        C566   1.406       .  A
C566        H581   1.084       .  S
C567        C568   1.400       .  A
C567        C572   1.408   1_565  A
C568        C569   1.400       .  A
C568        H583   1.085       .  S
C569        C570   1.416       .  A
C569        C573   1.444       .  S
C570        C571   1.406   1_565  A
C571        C572   1.399       .  A
C571        H584   1.084       .  S
C572        C574   1.444       .  S
C573        N577   1.157       .  T
C574        N578   1.157   1_655  T
C575        N580   1.157       .  T
C576        N579   1.157       .  T
