geometry optimzed in LAMMPS
_audit_creation_date              2020-12-01 
_audit_creation_method            'lammps2cif' 
_symmetry_space_group_name_H-M    'P1' 
_symmetry_Int_Tables_number       1 
_symmetry_cell_setting            triclinic 
loop_ 
_symmetry_equiv_pos_as_xyz 
  x,y,z 
_cell_length_a                    53.34672102 
_cell_length_b                    53.31493321803428 
_cell_length_c                    53.38761748678057 
_cell_angle_alpha                 89.98654479416763 
_cell_angle_beta                  89.96521431625676 
_cell_angle_gamma                 90.03986972674979 
loop_ 
_atom_site_label 
_atom_site_type_symbol 
_atom_site_fract_x 
_atom_site_fract_y 
_atom_site_fract_z 
_atom_site_charge 
N1          N  0.99720044  0.20561617  0.53785010    -0.36500
N2          N  0.03809780  0.20372594  0.50055064    -0.57100
N3          N  0.00046465  0.20707535  0.46101293    -0.36500
N4          N  0.95946921  0.20528843  0.49803044    -0.57100
C5          C  0.01719978  0.20291168  0.55326516     0.27100
C6          C  0.97611057  0.20343399  0.55191025     0.27100
C7          C  0.02143715  0.20319886  0.44715149     0.27000
C8          C  0.98043406  0.20361849  0.44578499     0.27000
C9          C  0.05197134  0.20690747  0.52157970     0.35700
C10         C  0.05372676  0.20744872  0.48082580     0.35700
C11         C  0.94401278  0.20892826  0.51790987     0.35700
C12         C  0.94576563  0.20952484  0.47705959     0.35700
C13         C  0.00868216  0.19892080  0.57749946    -0.21800
C14         C  0.98289192  0.19918978  0.57664457    -0.21800
C15         C  0.01459507  0.19706730  0.42285795    -0.21800
C16         C  0.98883364  0.19731352  0.42199659    -0.21800
C17         C  0.07669017  0.21173718  0.51512370    -0.22900
C18         C  0.07776679  0.21223981  0.48942139    -0.22900
C19         C  0.92019320  0.21490830  0.50945705    -0.22900
C20         C  0.92131542  0.21536832  0.48367436    -0.22900
C21         C  0.04289233  0.20577995  0.54661354    -0.18200
C22         C  0.95095682  0.20686400  0.54359356    -0.18200
C23         C  0.95485105  0.20787680  0.45201896    -0.18200
C24         C  0.04662106  0.20676400  0.45516688    -0.18200
H25         H  0.01987943  0.19650381  0.59422284     0.14700
H26         H  0.97055613  0.19702416  0.59260320     0.14700
H27         H  0.02691884  0.19312346  0.40723606     0.14700
H28         H  0.97756024  0.19364000  0.40554924     0.14700
H29         H  0.09230375  0.21505275  0.52763094     0.13000
H30         H  0.09435839  0.21610995  0.47842163     0.13000
H31         H  0.90377043  0.21884745  0.52069791     0.13000
H32         H  0.90589410  0.21969798  0.47124715     0.13000
H33         H  0.99800572  0.21135345  0.51932216     0.26200
H34         H  0.99988936  0.21498721  0.47878075     0.26200
O35         O  0.23430966  0.21419547  0.27564208    -0.88300
C36         C  0.23527164  0.28915224  0.29207810     0.87800
Mg37       Mg  0.26778465  0.19273106  0.26797225     1.58100
O38         O  0.21295276  0.27348746  0.23201173    -0.88000
O39         O  0.19752575  0.22282663  0.25979901    -0.75300
C40         C  0.33053537  0.26103338  0.18444339     0.92800
O41         O  0.27724648  0.24529037  0.30402968    -0.75100
O42         O  0.33479827  0.24540983  0.20202233    -0.82700
Mg43       Mg  0.23519455  0.23708029  0.30897226     1.58000
C44         C  0.24124882  0.31461122  0.17045690     0.92700
O45         O  0.19418582  0.22937455  0.32021865    -0.80900
H46         H  0.18965455  0.25444087  0.20969236    -0.06300
C47         C  0.28760389  0.29343188  0.23619187     0.87700
O48         O  0.26177000  0.19595144  0.22554301    -0.75400
O49         O  0.22505362  0.26904588  0.28684186    -0.88200
O50         O  0.22903708  0.31762900  0.19080403    -0.81000
C51         C  0.18122025  0.32708800  0.25638624     0.92800
C52         C  0.17284357  0.23994436  0.31840958     0.92700
Mg53       Mg  0.26776171  0.26372456  0.19218972     1.58000
O54         O  0.30907937  0.27124833  0.18168795    -0.80900
O55         O  0.22568819  0.25518220  0.19746248    -0.75200
O56         O  0.17858537  0.30696220  0.26916620    -0.81000
O57         O  0.24517372  0.20368176  0.33237689    -0.82700
O58         O  0.32448919  0.19408928  0.23268262    -0.81000
C59         C  0.20853585  0.26104944  0.21295481     0.87100
O60         O  0.27802045  0.23187302  0.21448079    -0.88200
O61         O  0.26827422  0.28669869  0.22534612    -0.88300
O62         O  0.30454827  0.27787422  0.24236810    -0.75300
Mg63       Mg  0.19106616  0.26523158  0.26535914     1.58000
O64         O  0.19928431  0.32991429  0.24102623    -0.82700
H65         H  0.21226853  0.18773192  0.26082895    -0.06400
O66         O  0.28949704  0.22691281  0.26943719    -0.88000
H67         H  0.31330817  0.24508854  0.29191667    -0.06300
H68         H  0.26357359  0.20797125  0.18952258    -0.06400
C69         C  0.29425999  0.23900303  0.28860389     0.87100
C70         C  0.21469002  0.20732544  0.26545663     0.87700
C71         C  0.26795540  0.21178695  0.20892086     0.87700
H72         H  0.28989820  0.31298207  0.24105617    -0.06400
O73         O  0.24108041  0.30492929  0.27524635    -0.75400
Mg74       Mg  0.31156331  0.23561567  0.23670846     1.58000
H75         H  0.24003104  0.29308445  0.31136320    -0.06400
C76         C  0.26046702  0.18563045  0.32985721     0.92700
O77         O  0.30301983  0.17073582  0.25989877    -0.82700
C78         C  0.32154019  0.17383398  0.24516023     0.92800
O79         O  0.16829640  0.25585169  0.30108969    -0.82700
Mg80       Mg  0.23456609  0.30785217  0.23281496     1.58200
O81         O  0.27283050  0.18237044  0.30967492    -0.81000
O82         O  0.25727420  0.29711185  0.16805849    -0.82700
O83         O  0.76473946  0.24259965  0.70563448    -0.88300
C84         C  0.74688667  0.19021608  0.75891283     0.87800
Mg85       Mg  0.79232849  0.27122094  0.71181302     1.58100
O86         O  0.70119718  0.23735145  0.75136498    -0.88000
O87         O  0.72490994  0.23917724  0.69620466    -0.75300
C88         C  0.76377097  0.31915290  0.82374080     0.92800
O89         O  0.80127416  0.21778257  0.74678730    -0.75100
O90         O  0.78262212  0.31562400  0.80951738    -0.82700
Mg91       Mg  0.77608231  0.20485481  0.71433412     1.58000
C92         C  0.67122688  0.27149909  0.81676991     0.92700
O93         O  0.75423027  0.18787401  0.68159132    -0.80900
H94         H  0.67660294  0.25591593  0.73006231    -0.06300
C95         C  0.75026638  0.24757824  0.80925283     0.87700
O96         O  0.76158326  0.29951893  0.72261873    -0.75400
O97         O  0.74403033  0.20188227  0.73911197    -0.88200
O98         O  0.67293043  0.24992762  0.80641369    -0.81000
C99         C  0.67363492  0.17797653  0.76579578     0.92800
C100        C  0.73332390  0.17723633  0.67710193     0.92700
Mg101      Mg  0.72103267  0.29098325  0.78687337     1.58000
O102        O  0.74275800  0.30863368  0.81945823    -0.80900
O103        O  0.69561750  0.27785077  0.75465254    -0.75200
O104        O  0.68654544  0.17982129  0.74569811    -0.81000
O105        O  0.80994908  0.20777858  0.68782594    -0.82700
O106        O  0.80916441  0.31607328  0.75591201    -0.81000
C107        C  0.69037776  0.25677675  0.74488383     0.87100
O108        O  0.75278045  0.29361722  0.76221197    -0.88200
O109        O  0.73224916  0.25321061  0.79583416    -0.88300
O110        O  0.77202862  0.25650736  0.80542848    -0.75300
Mg111      Mg  0.70787301  0.20954368  0.72259135     1.58000
O112        O  0.67548911  0.19397335  0.78341966    -0.82700
H113        H  0.74916858  0.26176290  0.67747541    -0.06400
O114        O  0.79551267  0.25826274  0.75016106    -0.88000
H115        H  0.81995112  0.23970052  0.77164751    -0.06300
H116        H  0.73645340  0.32056162  0.74193519    -0.06400
C117        C  0.80633129  0.23884414  0.75668348     0.87100
C118        C  0.74661930  0.24823717  0.69235179     0.87700
C119        C  0.74981945  0.30533820  0.74247306     0.87700
H120        H  0.74758375  0.23415149  0.82419614    -0.06400
O121        O  0.73510989  0.19615083  0.77874962    -0.75400
Mg122      Mg  0.78882206  0.28606988  0.77884171     1.58000
H123        H  0.76014722  0.17490406  0.75951692    -0.06400
C124        C  0.82614464  0.22502135  0.68427080     0.92700
O125        O  0.82114069  0.30203861  0.71846617    -0.82700
C126        C  0.82220276  0.31819716  0.73600583     0.92800
O127        O  0.71442652  0.18006401  0.69150731    -0.82700
Mg128      Mg  0.70452665  0.22464028  0.78977136     1.58200
O129        O  0.82412056  0.24636228  0.69502565    -0.81000
O130        O  0.68767406  0.28839853  0.81310626    -0.82700
N131        N  0.50349814  0.03754508  0.24533791    -0.36500
N132        N  0.54136986  0.99899360  0.24975847    -0.57100
N133        N  0.50224599  0.96161979  0.25736417    -0.36500
N134        N  0.46441762  0.00008864  0.25588774    -0.57100
C135        C  0.52441991  0.05167115  0.24836529     0.27100
C136        C  0.48362510  0.05215773  0.25126766     0.27100
C137        C  0.52281330  0.94791731  0.26275016     0.27000
C138        C  0.48216467  0.94852209  0.26564689     0.27000
C139        C  0.55594932  0.01813201  0.24177408     0.35700
C140        C  0.55527715  0.97793633  0.24759480     0.35700
C141        C  0.45019434  0.01973479  0.24868739     0.35700
C142        C  0.44944654  0.97962344  0.25488018     0.35700
C143        C  0.51772045  0.07552317  0.25624140    -0.21800
C144        C  0.49198578  0.07582888  0.25807089    -0.21800
C145        C  0.51572544  0.92581694  0.27456348    -0.21800
C146        C  0.49003333  0.92618548  0.27633838    -0.21800
C147        C  0.57921864  0.00913795  0.23442553    -0.22900
C148        C  0.57882617  0.98367327  0.23824475    -0.22900
C149        C  0.42607836  0.01168433  0.24313134    -0.22900
C150        C  0.42558389  0.98626155  0.24719838    -0.22900
C151        C  0.54929660  0.04377207  0.24343531    -0.18200
C152        C  0.45811293  0.04505717  0.24931540    -0.18200
C153        C  0.45688811  0.95520229  0.26174430    -0.18200
C154        C  0.54758036  0.95387738  0.25553476    -0.18200
H155        H  0.53007375  0.09109474  0.26034900     0.14700
H156        H  0.48071395  0.09170150  0.26378045     0.14700
H157        H  0.52777352  0.91073705  0.28081583     0.14700
H158        H  0.47843272  0.91147791  0.28417597     0.14700
H159        H  0.59500178  0.01983290  0.22746029     0.13000
H160        H  0.59421211  0.97089429  0.23483477     0.13000
H161        H  0.41038257  0.02297468  0.23701533     0.13000
H162        H  0.40952261  0.97408003  0.24480556     0.13000
H163        H  0.50257432  0.01984249  0.23719018     0.26200
H164        H  0.50176943  0.97727932  0.24580882     0.26200
O165        O  0.73490290  0.79566609  0.25047005    -0.88300
C166        C  0.74697215  0.74255520  0.30383653     0.87800
Mg167      Mg  0.70910692  0.79034526  0.22006014     1.58100
O168        O  0.79506882  0.74943052  0.25911003    -0.88000
O169        O  0.77424663  0.80518731  0.25675361    -0.75300
C170        C  0.73559148  0.67917465  0.17255424     0.92800
O171        O  0.69606604  0.75548901  0.27233596    -0.75100
O172        O  0.71714306  0.69402032  0.17528724    -0.82700
Mg173      Mg  0.72078507  0.78755107  0.28738396     1.58000
C174        C  0.82577196  0.68412794  0.22802597     0.92700
O175        O  0.74201800  0.82004510  0.30662204    -0.80900
H176        H  0.82150033  0.76983254  0.24202151    -0.06300
C177        C  0.74525364  0.69247147  0.24487759     0.87700
O178        O  0.74122377  0.77968471  0.19341028    -0.75400
O179        O  0.75164280  0.76237529  0.29278585    -0.88200
O180        O  0.82240396  0.69631875  0.24824367    -0.81000
C181        C  0.81962597  0.73339260  0.31941269     0.92800
C182        C  0.76256261  0.82340056  0.31840439     0.92700
Mg183      Mg  0.77814311  0.71365513  0.20402168     1.58000
O184        O  0.75609726  0.68218541  0.18449234    -0.80900
O185        O  0.80354960  0.74523123  0.21918122    -0.75200
O186        O  0.80789431  0.75425243  0.31812993    -0.81000
O187        O  0.68802774  0.81407064  0.28192014    -0.82700
O188        O  0.69114804  0.74756641  0.17341346    -0.81000
C189        C  0.80740632  0.75534296  0.24040210     0.87100
O190        O  0.74753928  0.73947020  0.19859820    -0.88200
O191        O  0.76360815  0.70597973  0.24078930    -0.88300
O192        O  0.72432152  0.69647535  0.23433411    -0.75300
Mg193      Mg  0.78854518  0.77793018  0.28695647     1.58000
O194        O  0.81676855  0.71640837  0.30295597    -0.82700
H195        H  0.75159684  0.82426737  0.23288505    -0.06400
O196        O  0.70384312  0.75222511  0.23216033    -0.88000
H197        H  0.67816418  0.73099887  0.24937019    -0.06300
H198        H  0.76658857  0.75962870  0.17337225    -0.06400
C199        C  0.69195792  0.74577589  0.25098723     0.87100
C200        C  0.75326413  0.80914321  0.24627364     0.87700
C201        C  0.75223953  0.75936861  0.18767911     0.87700
H202        H  0.74688784  0.67727031  0.25818105    -0.06400
O203        O  0.75764882  0.72213186  0.29791471    -0.75400
Mg204      Mg  0.71032720  0.72405727  0.20432984     1.58000
H205        H  0.73283572  0.74244507  0.31835431    -0.06400
C206        C  0.67263112  0.81598018  0.26383522     0.92700
O207        O  0.68173780  0.78548080  0.18785238    -0.82700
C208        C  0.67918599  0.76820546  0.17163487     0.92800
O209        O  0.78110831  0.80854950  0.31578594    -0.82700
Mg210      Mg  0.78947013  0.71132837  0.27109555     1.58200
O211        O  0.67618297  0.80484565  0.24306121    -0.81000
O212        O  0.81041147  0.68570859  0.20982039    -0.82700
N213        N  0.96087900  0.71597582  0.49448069    -0.36500
N214        N  0.00052741  0.71467267  0.45694529    -0.57100
N215        N  0.03717567  0.71614946  0.49751482    -0.36500
N216        N  0.99753685  0.71409761  0.53506944    -0.57100
C217        C  0.94767610  0.71037999  0.47353600     0.27100
C218        C  0.94608133  0.71050624  0.51440340     0.27100
C219        C  0.05231875  0.71169706  0.47764389     0.27000
C220        C  0.05069845  0.71158073  0.51849902     0.27000
C221        C  0.98073042  0.71862739  0.44157840     0.35700
C222        C  0.02146906  0.71907067  0.44328333     0.35700
C223        C  0.97661962  0.71954911  0.54837631     0.35700
C224        C  0.01728592  0.71956893  0.55004397     0.35700
C225        C  0.92436761  0.70098652  0.48027772    -0.21800
C226        C  0.92337074  0.70106181  0.50601644    -0.21800
C227        C  0.07569879  0.70411813  0.48612684    -0.21800
C228        C  0.07463648  0.70393915  0.51185931    -0.21800
C229        C  0.98918771  0.72523178  0.41789943    -0.22900
C230        C  0.01497976  0.72537117  0.41895309    -0.22900
C231        C  0.98315241  0.72830091  0.57194087    -0.22900
C232        C  0.00887544  0.72822474  0.57302118    -0.22900
C233        C  0.95523350  0.71537876  0.44852773    -0.18200
C234        C  0.95173627  0.71578541  0.53982073    -0.18200
C235        C  0.04280242  0.71641553  0.54340104    -0.18200
C236        C  0.04634232  0.71628721  0.45219244    -0.18200
H237        H  0.90944976  0.69501016  0.46790409     0.14700
H238        H  0.90754650  0.69518073  0.51727780     0.14700
H239        H  0.09202918  0.69961919  0.47496603     0.14700
H240        H  0.08996186  0.69927372  0.52428887     0.14700
H241        H  0.97801934  0.72946499  0.40152851     0.13000
H242        H  0.02751362  0.72959479  0.40356593     0.13000
H243        H  0.97073982  0.73435256  0.58678474     0.13000
H244        H  0.02007603  0.73419488  0.58882747     0.13000
H245        H  0.97755903  0.72605816  0.49510660     0.26200
H246        H  0.01984746  0.72499532  0.49684751     0.26200
O247        O  0.22089428  0.71387448  0.73238837    -0.88300
C248        C  0.20235714  0.78844452  0.73848846     0.87800
Mg249      Mg  0.23107588  0.69096408  0.76422805     1.58100
O250        O  0.26223239  0.77688383  0.71337244    -0.88000
O251        O  0.23606311  0.72589177  0.69621621    -0.75300
C252        C  0.31487112  0.75991352  0.82640002     0.92800
O253        O  0.19380466  0.74175460  0.77823398    -0.75100
O254        O  0.29812848  0.74332819  0.83044032    -0.82700
Mg255      Mg  0.18721198  0.73600361  0.73608060     1.58000
C256        C  0.32298999  0.81884061  0.74151277     0.92700
O257        O  0.17435628  0.73075970  0.69496111    -0.80900
H258        H  0.28419776  0.76149051  0.68722992    -0.06300
C259        C  0.25991476  0.79215827  0.78854710     0.87700
O260        O  0.27300711  0.69674259  0.75603465    -0.75400
O261        O  0.20809472  0.76914187  0.72709023    -0.88200
O262        O  0.30198767  0.82244543  0.73069457    -0.81000
C263        C  0.23536414  0.83022598  0.68525905     0.92800
C264        C  0.17598447  0.74247687  0.67417553     0.92700
Mg265      Mg  0.30434641  0.76551395  0.76468904     1.58000
O266        O  0.31643093  0.77121696  0.80545763    -0.80900
O267        O  0.29824235  0.75957700  0.72249775    -0.75200
O268        O  0.22248747  0.81020187  0.68254138    -0.81000
O269        O  0.16511948  0.70161660  0.74562239    -0.82700
O270        O  0.27017017  0.69136850  0.81785886    -0.81000
C271        C  0.28164095  0.76612438  0.70677834     0.87100
O272        O  0.28352798  0.73231146  0.77351484    -0.88200
O273        O  0.27042041  0.78723604  0.76850878    -0.88300
O274        O  0.25485491  0.77522393  0.80450515    -0.75300
Mg275      Mg  0.22865873  0.76827453  0.69243627     1.58000
O276        O  0.25094991  0.83290191  0.70306192    -0.82700
H277        H  0.23647114  0.68978661  0.70828480    -0.06400
O278        O  0.22956961  0.72395234  0.78757996    -0.88000
H279        H  0.20764499  0.73964632  0.81356325    -0.06300
H280        H  0.30848865  0.71050487  0.75604058    -0.06400
C281        C  0.21023768  0.73494867  0.79403494     0.87100
C282        C  0.23109217  0.70893782  0.71219560     0.87700
C283        C  0.28926936  0.71310159  0.76192816     0.87700
H284        H  0.25427139  0.81126636  0.79228968    -0.06400
O285        O  0.21869212  0.80467929  0.74446252    -0.75400
Mg286      Mg  0.26298713  0.73304765  0.80827116     1.58000
H287        H  0.18308891  0.79124275  0.74411521    -0.06400
C288        C  0.16850736  0.68296052  0.76003480     0.92700
O289        O  0.24250271  0.66723430  0.79788303    -0.82700
C290        C  0.25880350  0.67047099  0.81506959     0.92800
O291        O  0.19310165  0.75875392  0.67035039    -0.82700
Mg292      Mg  0.26076162  0.80995228  0.73676850     1.58200
O293        O  0.18953531  0.67904792  0.77082205    -0.81000
O294        O  0.32660941  0.80003790  0.75564747    -0.82700
N295        N  0.49876141  0.96143339  0.75235728    -0.36500
N296        N  0.45893001  0.99805876  0.75986384    -0.57100
N297        N  0.49601098  0.03656904  0.76885467    -0.36500
N298        N  0.53595857  0.99989149  0.75847901    -0.57100
C299        C  0.47850910  0.94873000  0.74392387     0.27100
C300        C  0.51933784  0.94973883  0.74319748     0.27100
C301        C  0.47511510  0.05060560  0.76527669     0.27000
C302        C  0.51603350  0.05160781  0.76474986     0.27000
C303        C  0.44567583  0.97651861  0.76157288     0.35700
C304        C  0.44418145  0.01635390  0.76936826     0.35700
C305        C  0.55120323  0.97959760  0.75869554     0.35700
C306        C  0.54957935  0.01927896  0.76740562     0.35700
C307        C  0.48630527  0.92891081  0.72898262    -0.21800
C308        C  0.51209006  0.92948546  0.72862673    -0.21800
C309        C  0.48197478  0.07485540  0.75886987    -0.21800
C310        C  0.50780427  0.07550398  0.75858327    -0.21800
C311        C  0.42256533  0.98111267  0.77257260    -0.22900
C312        C  0.42155844  0.00640456  0.77734134    -0.22900
C313        C  0.57460459  0.98609362  0.76787103    -0.22900
C314        C  0.57360391  0.01127725  0.77331397    -0.22900
C315        C  0.45341218  0.95333470  0.75126210    -0.18200
C316        C  0.54441537  0.95570246  0.74942035    -0.18200
C317        C  0.54146651  0.04454045  0.76758381    -0.18200
C318        C  0.45014130  0.04216536  0.76873264    -0.18200
H319        H  0.47465188  0.91515878  0.71967021     0.14700
H320        H  0.52415001  0.91629818  0.71901900     0.14700
H321        H  0.46967812  0.09047194  0.75482190     0.14700
H322        H  0.51922092  0.09173965  0.75430251     0.14700
H323        H  0.40778339  0.96774632  0.77641224     0.13000
H324        H  0.40589142  0.01637526  0.78550630     0.13000
H325        H  0.59078137  0.97407557  0.77014265     0.13000
H326        H  0.58892568  0.02252231  0.78043053     0.13000
H327        H  0.49857291  0.97514649  0.76622254     0.26200
H328        H  0.49668525  0.01845187  0.77610032     0.26200
N329        N  0.26430503  0.53797406  0.00015503    -0.36500
N330        N  0.25434223  0.50020607  0.03913568    -0.57100
N331        N  0.25066623  0.46217744  0.00093859    -0.36500
N332        N  0.25767527  0.49968624  0.96219707    -0.57100
C333        C  0.25970614  0.55254934  0.02039431     0.27100
C334        C  0.26060789  0.55227420  0.97945229     0.27100
C335        C  0.24172902  0.44960000  0.02103823     0.27000
C336        C  0.24354459  0.44928754  0.98033630     0.27000
C337        C  0.26218129  0.51961267  0.05341865     0.35700
C338        C  0.25502193  0.47953503  0.05389623     0.35700
C339        C  0.26676522  0.51864912  0.94806441     0.35700
C340        C  0.26036030  0.47855947  0.94847820     0.35700
C341        C  0.25319727  0.57646455  0.01253587    -0.21800
C342        C  0.25354412  0.57623765  0.98671398    -0.21800
C343        C  0.22856797  0.42860738  0.01310417    -0.21800
C344        C  0.22972521  0.42840547  0.98737058    -0.21800
C345        C  0.26770252  0.51125664  0.07740083    -0.22900
C346        C  0.26323158  0.48585322  0.07767615    -0.22900
C347        C  0.27554381  0.50944278  0.92539682    -0.22900
C348        C  0.27137094  0.48403066  0.92562183    -0.22900
C349        C  0.26230402  0.54504435  0.04572883    -0.18200
C350        C  0.26457285  0.54434122  0.95435008    -0.18200
C351        C  0.25108928  0.45481982  0.95560172    -0.18200
C352        C  0.24725467  0.45530922  0.04628839    -0.18200
H353        H  0.24852458  0.59239592  0.02419831     0.14700
H354        H  0.24911008  0.59198747  0.97473292     0.14700
H355        H  0.21951375  0.41461005  0.02468976     0.14700
H356        H  0.22174896  0.41422393  0.97525026     0.14700
H357        H  0.27409771  0.52235211  0.09312747     0.13000
H358        H  0.26561362  0.47352346  0.09359773     0.13000
H359        H  0.28367139  0.52000264  0.91009631     0.13000
H360        H  0.27562143  0.47112286  0.91056452     0.13000
H361        H  0.27193623  0.52002258  0.00061482     0.26200
H362        H  0.26373402  0.47666012  0.00135957     0.26200
N363        N  0.74897831  0.46202287  0.99937654    -0.36500
N364        N  0.74655552  0.49839424  0.95911959    -0.57100
N365        N  0.73418072  0.53752497  0.99548807    -0.36500
N366        N  0.73956625  0.50126630  0.03578146    -0.57100
C367        C  0.75813668  0.44812986  0.98023497     0.27100
C368        C  0.75418173  0.44962876  0.02086109     0.27100
C369        C  0.73934874  0.55127474  0.97483145     0.27000
C370        C  0.73681078  0.55290664  0.01548557     0.27000
C371        C  0.74724489  0.47709089  0.94536147     0.35700
C372        C  0.73906501  0.51685891  0.94346780     0.35700
C373        C  0.73804265  0.48124969  0.05119602     0.35700
C374        C  0.73144355  0.52118300  0.04909920     0.35700
C375        C  0.76926345  0.42661239  0.98967894    -0.21800
C376        C  0.76673760  0.42754066  0.01531905    -0.21800
C377        C  0.74507318  0.57569340  0.98175620    -0.21800
C378        C  0.74346581  0.57672147  0.00743007    -0.21800
C379        C  0.74029966  0.48208323  0.92085599    -0.22900
C380        C  0.73506241  0.50726560  0.91967007    -0.22900
C381        C  0.72888412  0.48848217  0.07441484    -0.22900
C382        C  0.72480547  0.51384912  0.07311102    -0.22900
C383        C  0.75489644  0.45336912  0.95443728    -0.18200
C384        C  0.74648178  0.45691206  0.04516609    -0.18200
C385        C  0.73258286  0.54622803  0.04073509    -0.18200
C386        C  0.73803508  0.54258678  0.94985258    -0.18200
H387        H  0.77793445  0.41158904  0.97915517     0.14700
H388        H  0.77313410  0.41339300  0.02837633     0.14700
H389        H  0.75002228  0.59116711  0.96959172     0.14700
H390        H  0.74686865  0.59314130  0.01885692     0.14700
H391        H  0.73914309  0.46897776  0.90542259     0.13000
H392        H  0.72922845  0.51740348  0.90310650     0.13000
H393        H  0.72594467  0.47682031  0.09075330     0.13000
H394        H  0.71818099  0.52564089  0.08823056     0.13000
H395        H  0.73711436  0.47734987  0.99769971     0.26200
H396        H  0.72691130  0.51941680  0.99567148     0.26200
O397        O  0.72900070  0.78939846  0.76862197    -0.88300
C398        C  0.70939858  0.71553759  0.76578284     0.87800
Mg399      Mg  0.73653298  0.81116209  0.73525688     1.58100
O400        O  0.77048670  0.72852466  0.78670105    -0.88000
O401        O  0.74545166  0.77926821  0.80473867    -0.75300
C402        C  0.81659230  0.74151999  0.66859832     0.92800
O403        O  0.69823230  0.76057684  0.72591839    -0.75100
O404        O  0.79918093  0.75752842  0.66492059    -0.82700
Mg405      Mg  0.69472042  0.76803344  0.76826425     1.58000
C406        C  0.82972598  0.68720646  0.75731329     0.92700
O407        O  0.68547738  0.77478607  0.81008045    -0.80900
H408        H  0.79363472  0.74665346  0.80990803    -0.06300
C409        C  0.76457279  0.71016405  0.71190496     0.87700
O410        O  0.77896500  0.80639451  0.74007664    -0.75400
O411        O  0.71567353  0.73498639  0.77667660    -0.88200
O412        O  0.80927563  0.68457568  0.76935337    -0.81000
C413        C  0.74427476  0.67454938  0.81680176     0.92800
C414        C  0.68766958  0.76302066  0.83079186     0.92700
Mg415      Mg  0.80973085  0.73836985  0.73155157     1.58000
O416        O  0.81969121  0.73123000  0.68996826    -0.80900
O417        O  0.80525213  0.74633728  0.77371170    -0.75200
O418        O  0.73258105  0.69509902  0.82045011    -0.81000
O419        O  0.67221254  0.80263507  0.75950825    -0.82700
O420        O  0.77095520  0.80960861  0.67822200    -0.81000
C421        C  0.78992214  0.74044491  0.79099341     0.87100
O422        O  0.78846077  0.77074364  0.72233511    -0.88200
O423        O  0.77569215  0.71658861  0.73115056    -0.88300
O424        O  0.75836339  0.72599769  0.69527597    -0.75300
Mg425      Mg  0.73844333  0.73687396  0.80981764     1.58000
O426        O  0.75953286  0.67184649  0.79868590    -0.82700
H427        H  0.74527193  0.81476774  0.79091777    -0.06400
O428        O  0.73342241  0.77740441  0.71293744    -0.88000
H429        H  0.70949827  0.76048628  0.68960045    -0.06300
H430        H  0.81455984  0.79346305  0.73668909    -0.06400
C431        C  0.71358785  0.76621470  0.70858830     0.87100
C432        C  0.73992445  0.79540784  0.78812076     0.87700
C433        C  0.79491635  0.79034704  0.73279966     0.87700
H434        H  0.75942330  0.69069881  0.70948034    -0.06400
O435        O  0.72547309  0.69949081  0.75871081    -0.75400
Mg436      Mg  0.76532044  0.76814743  0.68951297     1.58000
H437        H  0.68983575  0.71250692  0.76144844    -0.06400
C438        C  0.67484539  0.82048257  0.74393697     0.92700
O439        O  0.74456421  0.83343794  0.70026688    -0.82700
C440        C  0.75919804  0.83015403  0.68171455     0.92800
O441        O  0.70445252  0.74632854  0.83395489    -0.82700
Mg442      Mg  0.76789971  0.69498332  0.76429506     1.58200
O443        O  0.69497375  0.82318282  0.73131126    -0.81000
O444        O  0.83272954  0.70453644  0.74126557    -0.82700
N445        N  0.76438383  0.96269415  0.49809575    -0.36500
N446        N  0.75578018  0.00179762  0.53617520    -0.57100
N447        N  0.75566670  0.03943899  0.49751765    -0.36500
N448        N  0.76092643  0.00028501  0.45932375    -0.57100
C449        C  0.75922045  0.94861304  0.51852826     0.27100
C450        C  0.76109226  0.94788703  0.47769944     0.27100
C451        C  0.74704695  0.05308699  0.51713685     0.27000
C452        C  0.74981077  0.05216853  0.47641038     0.27000
C453        C  0.76151997  0.98216591  0.55112545     0.35700
C454        C  0.75640149  0.02251511  0.55085551     0.35700
C455        C  0.76790612  0.98045034  0.44520272     0.35700
C456        C  0.76417209  0.02083728  0.44491383     0.35700
C457        C  0.75297402  0.92447067  0.51109637    -0.21800
C458        C  0.75406287  0.92404038  0.48533713    -0.21800
C459        C  0.73573505  0.07477110  0.50835360    -0.21800
C460        C  0.73748494  0.07420238  0.48267860    -0.21800
C461        C  0.76572252  0.99044936  0.57539535    -0.22900
C462        C  0.76253773  0.01598852  0.57520659    -0.22900
C463        C  0.77577476  0.98843911  0.42177752    -0.22900
C464        C  0.77347168  0.01408013  0.42161339    -0.22900
C465        C  0.76098507  0.95666650  0.54373542    -0.18200
C466        C  0.76510889  0.95514381  0.45246846    -0.18200
C467        C  0.75665929  0.04526599  0.45173864    -0.18200
C468        C  0.75010470  0.04701241  0.54278635    -0.18200
H469        H  0.74802857  0.90878967  0.52299863     0.14700
H470        H  0.75012238  0.90796889  0.47359955     0.14700
H471        H  0.72710685  0.08951540  0.51929049     0.14700
H472        H  0.73054074  0.08848474  0.47005674     0.14700
H473        H  0.77036009  0.97922555  0.59163819     0.13000
H474        H  0.76439438  0.02827817  0.59122582     0.13000
H475        H  0.78213800  0.97695728  0.40631370     0.13000
H476        H  0.77765072  0.02628787  0.40595526     0.13000
H477        H  0.77204782  0.98061807  0.49833896     0.26200
H478        H  0.76732863  0.02385950  0.49849018     0.26200
O479        O  0.73007774  0.28877734  0.22975185    -0.88300
C480        C  0.73676782  0.21636942  0.20506399     0.87800
Mg481      Mg  0.76215779  0.31218930  0.23831876     1.58100
O482        O  0.71550758  0.22403826  0.26687972    -0.88000
O483        O  0.69457712  0.27545127  0.24530720    -0.75300
C484        C  0.83371405  0.23970705  0.31164281     0.92800
O485        O  0.77417960  0.26485445  0.19653316    -0.75100
O486        O  0.83640603  0.25776210  0.29611107    -0.82700
Mg487      Mg  0.73138029  0.26965149  0.19416324     1.58000
C488        C  0.74834863  0.18077336  0.32303648     0.92700
O489        O  0.68938674  0.27476049  0.18527052    -0.80900
H490        H  0.69186406  0.23959826  0.29141550    -0.06300
C491        C  0.79109002  0.21071316  0.25815708     0.87700
O492        O  0.75849270  0.30419152  0.28035190    -0.75400
O493        O  0.72518343  0.23483253  0.21285676    -0.88200
O494        O  0.73576151  0.17801128  0.30293444    -0.81000
C495        C  0.68734363  0.17089718  0.23810852     0.92800
C496        C  0.66934639  0.26177277  0.18626196     0.92700
Mg497      Mg  0.77091111  0.23446261  0.30536711     1.58000
O498        O  0.81290793  0.22808337  0.31371529    -0.80900
O499        O  0.72829912  0.24062291  0.30227344    -0.75200
O500        O  0.68325516  0.19170311  0.22702744    -0.81000
O501        O  0.73724123  0.30585154  0.17434229    -0.82700
O502        O  0.82013418  0.31151627  0.27140607    -0.81000
C503        C  0.71100822  0.23462803  0.28700692     0.87100
O504        O  0.77810954  0.26883660  0.28659860    -0.88200
O505        O  0.77175354  0.21484980  0.27022848    -0.88300
O506        O  0.80669504  0.22802873  0.25318272    -0.75300
Mg507      Mg  0.69182601  0.23340931  0.23540414     1.58000
O508        O  0.70587715  0.16795138  0.25281220    -0.82700
H509        H  0.70639435  0.31159822  0.24774289    -0.06400
O510        O  0.78653421  0.28027992  0.23247883    -0.88000
H511        H  0.81064676  0.26689825  0.20714541    -0.06300
H512        H  0.76331767  0.28867262  0.31471066    -0.06400
C513        C  0.79134627  0.27085253  0.21189223     0.87100
C514        C  0.71027837  0.29286725  0.24103464     0.87700
C515        C  0.76688221  0.28731631  0.29481863     0.87700
H516        H  0.79453850  0.19199781  0.25117367    -0.06400
O517        O  0.74441192  0.19936370  0.21982881    -0.75400
Mg518      Mg  0.81077757  0.26981750  0.26325168     1.58000
H519        H  0.74108883  0.21500998  0.18532319    -0.06400
C520        C  0.75117107  0.32480252  0.17780474     0.92700
O521        O  0.79614985  0.33582851  0.24719672    -0.82700
C522        C  0.81542953  0.33253058  0.26087874     0.92800
O523        O  0.66700865  0.24372986  0.20176895    -0.82700
Mg524      Mg  0.73956181  0.19180171  0.26192854     1.58200
O525        O  0.76425307  0.32733930  0.19763860    -0.81000
O526        O  0.76331464  0.19902104  0.32598629    -0.82700
N527        N  0.99980180  0.54151240  0.24673054    -0.36500
N528        N  0.96136861  0.50354353  0.24964163    -0.57100
N529        N  0.00003709  0.46513728  0.25751688    -0.36500
N530        N  0.03848967  0.50316982  0.25157740    -0.57100
C531        C  0.97964116  0.55483338  0.23906095     0.27100
C532        C  0.02041080  0.55466548  0.24006155     0.27100
C533        C  0.97959127  0.45079545  0.25288772     0.27000
C534        C  0.02054150  0.45058674  0.25371902     0.27000
C535        C  0.94671345  0.52422242  0.25095500     0.35700
C536        C  0.94685237  0.48396333  0.25656519     0.35700
C537        C  0.05278362  0.52401759  0.25373023     0.35700
C538        C  0.05299841  0.48366230  0.25877588     0.35700
C539        C  0.98754519  0.57671367  0.22742541    -0.21800
C540        C  0.01330047  0.57663795  0.22811294    -0.21800
C541        C  0.98716924  0.42680837  0.24629739    -0.21800
C542        C  0.01296868  0.42669058  0.24676066    -0.21800
C543        C  0.92279364  0.51779048  0.25871048    -0.22900
C544        C  0.92288826  0.49229311  0.26235680    -0.22900
C545        C  0.07648154  0.51776477  0.26228624    -0.22900
C546        C  0.07659607  0.49220906  0.26557609    -0.22900
C547        C  0.95434272  0.54858027  0.24383184    -0.18200
C548        C  0.04532179  0.54831979  0.24626975    -0.18200
C549        C  0.04583747  0.45811035  0.25720625    -0.18200
C550        C  0.95428024  0.45848482  0.25551040    -0.18200
H551        H  0.97595575  0.59138977  0.21956043     0.14700
H552        H  0.02540395  0.59127469  0.22093662     0.14700
H553        H  0.97534429  0.41101146  0.24154059     0.14700
H554        H  0.02476826  0.41078752  0.24236212     0.14700
H555        H  0.90690184  0.53013631  0.26128014     0.13000
H556        H  0.90700218  0.48113305  0.26828397     0.13000
H557        H  0.09214983  0.53026643  0.26549337     0.13000
H558        H  0.09237140  0.48116341  0.27193212     0.13000
H559        H  0.99952405  0.52603939  0.25856584     0.26200
H560        H  0.99986938  0.48304507  0.26522316     0.26200
O561        O  0.24248587  0.70231024  0.25080846    -0.88300
C562        C  0.24913926  0.75485958  0.19505409     0.87800
Mg563      Mg  0.21836626  0.70730101  0.28290124     1.58100
O564        O  0.29992986  0.75133063  0.23706054    -0.88000
O565        O  0.28177781  0.69478961  0.24176932    -0.75300
C566        C  0.24070659  0.82344513  0.32190792     0.92800
O567        O  0.19961153  0.73943353  0.23016520    -0.75100
O568        O  0.22247044  0.80803281  0.32094095    -0.82700
Mg569      Mg  0.22560655  0.70894174  0.21456594     1.58000
C570        C  0.32895353  0.81823178  0.26625344     0.92700
O571        O  0.24747265  0.67769896  0.19425925    -0.80900
H572        H  0.32693985  0.73172532  0.25408845    -0.06300
C573        C  0.24788214  0.80556572  0.25082842     0.87700
O574        O  0.25086515  0.72126443  0.30715486    -0.75400
O575        O  0.25485825  0.73578713  0.20687535    -0.88200
O576        O  0.32534814  0.80657005  0.24571372    -0.81000
C577        C  0.32072760  0.76621238  0.17496581     0.92800
C578        C  0.26714980  0.67532017  0.18083818     0.92700
Mg579      Mg  0.28314046  0.78765799  0.29180137     1.58000
O580        O  0.26110147  0.81949960  0.31013491    -0.80900
O581        O  0.30878499  0.75622584  0.27685849    -0.75200
O582        O  0.30849639  0.74572570  0.17705203    -0.81000
O583        O  0.19426004  0.68081455  0.22255009    -0.82700
O584        O  0.19932015  0.75237976  0.32794176    -0.81000
C585        C  0.31261453  0.74596940  0.25569397     0.87100
O586        O  0.25388001  0.76143455  0.29951440    -0.88200
O587        O  0.26740921  0.79389552  0.25515029    -0.88300
O588        O  0.22758470  0.80069152  0.26227702    -0.75300
Mg589      Mg  0.29277339  0.72207378  0.21014803     1.58000
O590        O  0.31915433  0.78342600  0.19141002    -0.82700
H591        H  0.26199165  0.67511178  0.26766917    -0.06400
O592        O  0.20965881  0.74445113  0.26955030    -0.88000
H593        H  0.18106727  0.76276273  0.25377071    -0.06300
H594        H  0.27511546  0.74433858  0.32517710    -0.06400
C595        C  0.19597946  0.74922699  0.25151889     0.87100
C596        C  0.26184746  0.68998634  0.25390341     0.87700
C597        C  0.26032650  0.74266381  0.31143957     0.87700
H598        H  0.24790426  0.81980344  0.23640582    -0.06400
O599        O  0.25995502  0.77570766  0.19904842    -0.75400
Mg600      Mg  0.21596898  0.77491374  0.29478712     1.58000
H601        H  0.23425991  0.75389455  0.18134800    -0.06400
C602        C  0.18038804  0.67812250  0.24181832     0.92700
O603        O  0.19293191  0.71260925  0.31680207    -0.82700
C604        C  0.18943857  0.73088537  0.33179466     0.92800
O605        O  0.28515055  0.69095133  0.18209088    -0.82700
Mg606      Mg  0.29252795  0.78881115  0.22415981     1.58200
O607        O  0.18542977  0.68894386  0.26248982    -0.81000
O608        O  0.31427979  0.81561306  0.28481722    -0.82700
N609        N  0.24833432  0.03947243  0.50046386    -0.36500
N610        N  0.24798018  0.00087215  0.46165286    -0.57100
N611        N  0.23933330  0.96261905  0.50017643    -0.36500
N612        N  0.24428838  0.00114567  0.53907082    -0.57100
C613        C  0.25540502  0.05314469  0.48031085     0.27100
C614        C  0.25352775  0.05333138  0.52106817     0.27100
C615        C  0.24175642  0.94768590  0.47979153     0.27000
C616        C  0.24030875  0.94774971  0.52073292     0.27000
C617        C  0.24757166  0.02143150  0.44677763     0.35700
C618        C  0.24324620  0.98099699  0.44663358     0.35700
C619        C  0.24299253  0.02172162  0.55386736     0.35700
C620        C  0.23873254  0.98125857  0.55378816     0.35700
C621        C  0.26503683  0.07599176  0.48824849    -0.21800
C622        C  0.26373830  0.07615097  0.51391175    -0.21800
C623        C  0.24356769  0.92290080  0.48746449    -0.21800
C624        C  0.24276512  0.92294017  0.51321842    -0.21800
C625        C  0.24284524  0.01451180  0.42220036    -0.22900
C626        C  0.24031128  0.98894663  0.42207928    -0.22900
C627        C  0.23684441  0.01488587  0.57812616    -0.22900
C628        C  0.23411595  0.98931211  0.57808731    -0.22900
C629        C  0.25215771  0.04630973  0.45486983    -0.18200
C630        C  0.24844972  0.04650358  0.54615591    -0.18200
C631        C  0.23872405  0.95577673  0.54607843    -0.18200
C632        C  0.24198684  0.95562658  0.45441274    -0.18200
H633        H  0.27220905  0.09109751  0.47674338     0.14700
H634        H  0.26967300  0.09138246  0.52593223     0.14700
H635        H  0.24550314  0.90644725  0.47575127     0.14700
H636        H  0.24401667  0.90647883  0.52500778     0.14700
H637        H  0.24123402  0.02655852  0.40597570     0.13000
H638        H  0.23637806  0.97755928  0.40576427     0.13000
H639        H  0.23463297  0.02703943  0.59421234     0.13000
H640        H  0.22921266  0.97796836  0.59417590     0.13000
H641        H  0.23790163  0.02306605  0.50002866     0.26200
H642        H  0.23542615  0.98160841  0.49998343     0.26200
O643        O  0.26446073  0.25488382  0.79644443    -0.88300
C644        C  0.24973457  0.30868168  0.74264165     0.87800
Mg645      Mg  0.28946326  0.22389620  0.79107907     1.58100
O646        O  0.20053914  0.26491413  0.75029582    -0.88000
O647        O  0.22480764  0.26111673  0.80523177    -0.75300
C648        C  0.25683405  0.17928080  0.67835126     0.92800
O649        O  0.30246157  0.27579655  0.75436045    -0.75100
O650        O  0.27560872  0.18050723  0.69307256    -0.82700
Mg651      Mg  0.27853441  0.29140040  0.78647866     1.58000
C652        C  0.16854170  0.23330889  0.68438530     0.92700
O653        O  0.25882889  0.31103711  0.81888038    -0.80900
H654        H  0.17428846  0.24854020  0.77147139    -0.06300
C655        C  0.24988741  0.25141645  0.69380898     0.87700
O656        O  0.25618230  0.19848945  0.78014431    -0.75400
O657        O  0.24643580  0.29651425  0.76204163    -0.88200
O658        O  0.17161034  0.25494651  0.69430474    -0.81000
C659        C  0.17659873  0.32576791  0.73728634     0.92800
C660        C  0.23863152  0.32295068  0.82320130     0.92700
Mg661      Mg  0.21659508  0.21030080  0.71528971     1.58000
O662        O  0.23691363  0.19171210  0.68250177    -0.80900
O663        O  0.19188065  0.22498010  0.74732953    -0.75200
O664        O  0.19009589  0.32340602  0.75690764    -0.81000
O665        O  0.31208758  0.28633270  0.81254681    -0.82700
O666        O  0.30328875  0.17628230  0.74748151    -0.81000
C667        C  0.18812742  0.24647521  0.75681442     0.87100
O668        O  0.24799610  0.20485427  0.74046537    -0.88200
O669        O  0.23072146  0.24720337  0.70620639    -0.88300
O670        O  0.27050520  0.24019849  0.69814137    -0.75300
Mg671      Mg  0.20989056  0.29186207  0.77900431     1.58000
O672        O  0.17766173  0.31000845  0.71933895    -0.82700
H673        H  0.24712376  0.23712176  0.82449838    -0.06400
O674        O  0.29430252  0.23563070  0.75265578    -0.88000
H675        H  0.31996270  0.25178651  0.73063398    -0.06300
H676        H  0.22900512  0.17991539  0.76103965    -0.06400
C677        C  0.30637242  0.25406818  0.74549028     0.87100
C678        C  0.24578200  0.25069209  0.80950984     0.87700
C679        C  0.24384216  0.19372257  0.76034654     0.87700
H680        H  0.24924688  0.26546283  0.67921427    -0.06400
O681        O  0.23718454  0.30421691  0.72293702    -0.75400
Mg682      Mg  0.28483620  0.20864610  0.72420672     1.58000
H683        H  0.26392694  0.32316318  0.74229149    -0.06400
C684        C  0.32697186  0.26826139  0.81730462     0.92700
O685        O  0.31527397  0.19052856  0.78493010    -0.82700
C686        C  0.31595843  0.17394151  0.76774090     0.92800
O687        O  0.21932313  0.32053349  0.80937573    -0.82700
Mg688      Mg  0.20481048  0.27775155  0.71199573     1.58200
O689        O  0.32341591  0.24642193  0.80795763    -0.81000
O690        O  0.18362421  0.21538392  0.68886164    -0.82700
N691        N  0.99653709  0.46292511  0.73750901    -0.36500
N692        N  0.95714020  0.49941272  0.74802500    -0.57100
N693        N  0.99521052  0.53804150  0.75214066    -0.36500
N694        N  0.03440017  0.50175947  0.74457822    -0.57100
C695        C  0.97660579  0.44769766  0.74158799     0.27100
C696        C  0.01748904  0.44886061  0.74035511     0.27100
C697        C  0.97479006  0.55001079  0.76109232     0.27000
C698        C  0.01545389  0.55132933  0.75961374     0.27000
C699        C  0.94313789  0.48005250  0.73961103     0.35700
C700        C  0.94240586  0.52001739  0.74684201     0.35700
C701        C  0.04918509  0.48288780  0.73649036     0.35700
C702        C  0.04835770  0.52289301  0.74340209     0.35700
C703        C  0.98503391  0.42366127  0.74690545    -0.21800
C704        C  0.01079247  0.42437424  0.74600064    -0.21800
C705        C  0.98210282  0.57096127  0.77464515    -0.21800
C706        C  0.00781684  0.57179004  0.77372198    -0.21800
C707        C  0.91936049  0.48840284  0.73319590    -0.22900
C708        C  0.91890478  0.51375149  0.73778921    -0.22900
C709        C  0.07268283  0.49202515  0.73016646    -0.22900
C710        C  0.07209913  0.51745316  0.73436324    -0.22900
C711        C  0.95104967  0.45471173  0.73940976    -0.18200
C712        C  0.04245904  0.45728835  0.73707349    -0.18200
C713        C  0.04043392  0.54653734  0.75232918    -0.18200
C714        C  0.94979728  0.54415713  0.75479336    -0.18200
H715        H  0.97383546  0.40724472  0.75104156     0.14700
H716        H  0.02317808  0.40862580  0.74919951     0.14700
H717        H  0.97009714  0.58458223  0.78370557     0.14700
H718        H  0.01952639  0.58611778  0.78205585     0.14700
H719        H  0.90393118  0.47739311  0.72595923     0.13000
H720        H  0.90309210  0.52609864  0.73481785     0.13000
H721        H  0.08866112  0.48140893  0.72356324     0.13000
H722        H  0.08754726  0.53032518  0.73159333     0.13000
H723        H  0.99580306  0.48120430  0.73075835     0.26200
H724        H  0.99509732  0.52388510  0.73874184     0.26200
N725        N  0.50013762  0.28820119  0.03854977    -0.36500
N726        N  0.53970179  0.29338405  0.00143622    -0.57100
N727        N  0.50094797  0.29231772  0.96236092    -0.36500
N728        N  0.46136902  0.29064568  0.99966762    -0.57100
C729        C  0.52022036  0.29267369  0.05345634     0.27100
C730        C  0.47931748  0.29190413  0.05259291     0.27100
C731        C  0.52151204  0.29829168  0.94871616     0.27000
C732        C  0.48061013  0.29628860  0.94765323     0.27000
C733        C  0.55397799  0.28781036  0.02166787     0.35700
C734        C  0.55443984  0.29020450  0.98103257     0.35700
C735        C  0.44674518  0.28504836  0.01965459     0.35700
C736        C  0.44726406  0.28664243  0.97893268     0.35700
C737        C  0.51206547  0.29946598  0.07715256    -0.21800
C738        C  0.48630714  0.29908537  0.07659092    -0.21800
C739        C  0.51412394  0.30639093  0.92514865    -0.21800
C740        C  0.48835749  0.30509660  0.92447345    -0.21800
C741        C  0.57803758  0.28159653  0.01411515    -0.22900
C742        C  0.57833874  0.28312975  0.98838116    -0.22900
C743        C  0.42308418  0.27794618  0.01155789    -0.22900
C744        C  0.42340384  0.27901064  0.98581036    -0.22900
C745        C  0.54567470  0.28887585  0.04686981    -0.18200
C746        C  0.45428101  0.28686391  0.04510509    -0.18200
C747        C  0.45543083  0.29039245  0.95390380    -0.18200
C748        C  0.54675749  0.29404252  0.95589841    -0.18200
H749        H  0.52350833  0.30389682  0.09329596     0.14700
H750        H  0.47410136  0.30317632  0.09226708     0.14700
H751        H  0.52611649  0.31204368  0.90978598     0.14700
H752        H  0.47667477  0.30967058  0.90854755     0.14700
H753        H  0.59368937  0.27634083  0.02588370     0.13000
H754        H  0.59428665  0.27929766  0.97644272     0.13000
H755        H  0.40724623  0.27240176  0.02295825     0.13000
H756        H  0.40787422  0.27452898  0.97356355     0.13000
H757        H  0.50062980  0.27982002  0.02100867     0.26200
H758        H  0.50103532  0.28279901  0.97930731     0.26200
N759        N  0.46096483  0.77844591  0.99596633    -0.36500
N760        N  0.49976986  0.78344490  0.95747130    -0.57100
N761        N  0.53697424  0.78193845  0.99705330    -0.36500
N762        N  0.49822558  0.77983347  0.03526947    -0.57100
C763        C  0.44752396  0.78550730  0.97565992     0.27100
C764        C  0.44655075  0.78282893  0.01642671     0.27100
C765        C  0.55144782  0.78755874  0.97701910     0.27000
C766        C  0.55051229  0.78726386  0.01781082     0.27000
C767        C  0.47973565  0.77822198  0.94284550     0.35700
C768        C  0.52042578  0.77871774  0.94351571     0.35700
C769        C  0.47806701  0.77282243  0.04893614     0.35700
C770        C  0.51860750  0.77544871  0.04963530     0.35700
C771        C  0.42446816  0.79477676  0.98335000    -0.21800
C772        C  0.42383599  0.79303238  0.00904995    -0.21800
C773        C  0.57436680  0.79678439  0.98510628    -0.21800
C774        C  0.57375888  0.79664750  0.01086906    -0.21800
C775        C  0.48771605  0.77042981  0.91937456    -0.22900
C776        C  0.51350868  0.77080981  0.91978946    -0.22900
C777        C  0.48570118  0.76390689  0.07211290    -0.22900
C778        C  0.51141063  0.76573753  0.07261226    -0.22900
C779        C  0.45443640  0.78125226  0.95035747    -0.18200
C780        C  0.45290294  0.77650147  0.04140588    -0.18200
C781        C  0.54347033  0.78130907  0.04264987    -0.18200
C782        C  0.54538081  0.78225927  0.95179150    -0.18200
H783        H  0.40943976  0.80164352  0.97159365     0.14700
H784        H  0.40830779  0.79845502  0.02092035     0.14700
H785        H  0.59011011  0.80246471  0.97362444     0.14700
H786        H  0.58899051  0.80210856  0.02309793     0.14700
H787        H  0.47623160  0.76485023  0.90363552     0.13000
H788        H  0.52574599  0.76570608  0.90444124     0.13000
H789        H  0.47398416  0.75709349  0.08720710     0.13000
H790        H  0.52341581  0.76059512  0.08811968     0.13000
H791        H  0.47756369  0.76821454  0.99562749     0.26200
H792        H  0.52038183  0.77174174  0.99653070     0.26200
C793        C  0.36663842  0.31974976  0.88395048    -0.17800
C794        C  0.38403201  0.32263456  0.90341397    -0.19900
C795        C  0.40174355  0.30383216  0.90844548     0.20700
C796        C  0.40193759  0.28191356  0.89356212    -0.02800
C797        C  0.38424087  0.27894217  0.87394250    -0.05900
C798        C  0.36653063  0.29796494  0.86913215     0.21000
C799        C  0.38408901  0.25683329  0.85937075     0.19200
C800        C  0.40185694  0.23804797  0.86438301    -0.17400
C801        C  0.41950230  0.24107491  0.88362207    -0.19600
C802        C  0.41967256  0.26288250  0.89838851     0.20700
C803        C  0.43712228  0.26593277  0.91796194    -0.32600
C804        C  0.43688086  0.28760728  0.93302049     0.01300
C805        C  0.41914703  0.30649453  0.92813183    -0.24000
C806        C  0.34872684  0.29472347  0.84992790    -0.28500
C807        C  0.34796031  0.27249863  0.83552812     0.07000
C808        C  0.36595466  0.25371268  0.84036335    -0.27200
H809        H  0.35311992  0.33453139  0.88059715     0.11700
H810        H  0.38357243  0.33958313  0.91459837     0.12900
H811        H  0.40206552  0.22092870  0.85345344     0.11900
H812        H  0.43294343  0.22624409  0.88705753     0.11200
H813        H  0.45079595  0.25137247  0.92170011     0.16600
H814        H  0.41899873  0.32323706  0.93964840     0.12500
H815        H  0.33492626  0.30928956  0.84674454     0.15300
H816        H  0.36560620  0.23646319  0.82963010     0.15100
C817        C  0.10932593  0.37262539  0.69332310    -0.17800
C818        C  0.09037482  0.39079409  0.69336846    -0.19900
C819        C  0.08605275  0.40555071  0.71470527     0.20700
C820        C  0.10105193  0.40199044  0.73621139    -0.02800
C821        C  0.12019847  0.38367379  0.73614203    -0.05900
C822        C  0.12434299  0.36890423  0.71459728     0.21000
C823        C  0.13506416  0.38005051  0.75768426     0.19200
C824        C  0.13062009  0.39465147  0.77911601    -0.17400
C825        C  0.11170105  0.41280703  0.77918148    -0.19600
C826        C  0.09686728  0.41665292  0.75783623     0.20700
C827        C  0.07786276  0.43481242  0.75776913    -0.32600
C828        C  0.06286819  0.43836084  0.73646851     0.01300
C829        C  0.06696418  0.42370917  0.71499896    -0.24000
C830        C  0.14323038  0.35051263  0.71478382    -0.28500
C831        C  0.15814120  0.34668868  0.73622694     0.07000
C832        C  0.15393743  0.36172167  0.75754961    -0.27200
H833        H  0.11220740  0.36143295  0.67663257     0.11700
H834        H  0.07904943  0.39326319  0.67671094     0.12900
H835        H  0.14178612  0.39201987  0.79585904     0.11900
H836        H  0.10865659  0.42383685  0.79595380     0.11200
H837        H  0.07450392  0.44610109  0.77432807     0.16600
H838        H  0.05527701  0.42650408  0.69862920     0.12500
H839        H  0.14607346  0.33895537  0.69832736     0.15300
H840        H  0.16500979  0.35883365  0.77432298     0.15100
C841        C  0.29599627  0.10947832  0.63145648    -0.17800
C842        C  0.29437912  0.09028677  0.61365845    -0.19900
C843        C  0.27309942  0.08801709  0.59839272     0.20700
C844        C  0.25337147  0.10550181  0.60082297    -0.02800
C845        C  0.25500070  0.12486164  0.61882742    -0.05900
C846        C  0.27634085  0.12671811  0.63435052     0.21000
C847        C  0.23510448  0.14204795  0.62159360     0.19200
C848        C  0.21397610  0.14004699  0.60602470    -0.17400
C849        C  0.21241568  0.12095515  0.58808987    -0.19600
C850        C  0.23191909  0.10349357  0.58545549     0.20700
C851        C  0.23036454  0.08403311  0.56780126    -0.32600
C852        C  0.24987746  0.06650893  0.56549858     0.01300
C853        C  0.27117950  0.06857046  0.58077822    -0.24000
C854        C  0.27738641  0.14530805  0.65296108    -0.28500
C855        C  0.25724171  0.16195152  0.65651727     0.07000
C856        C  0.23638747  0.16049713  0.64031450    -0.27200
H857        H  0.31252436  0.11065257  0.64318395     0.11700
H858        H  0.30972462  0.07709516  0.61195358     0.12900
H859        H  0.19853172  0.15310936  0.60788710     0.11900
H860        H  0.19585177  0.11972333  0.57641518     0.11200
H861        H  0.21404357  0.08243844  0.55580976     0.16600
H862        H  0.28627868  0.05512205  0.57873234     0.12500
H863        H  0.29352910  0.14621421  0.66524780     0.15300
H864        H  0.22074546  0.17324480  0.64272263     0.15100
C865        C  0.37235334  0.74175043  0.07322829    -0.17800
C866        C  0.35367529  0.74058201  0.09168437    -0.19900
C867        C  0.35513106  0.75572204  0.11317158     0.20700
C868        C  0.37554253  0.77236256  0.11592890    -0.02800
C869        C  0.39447960  0.77342095  0.09738814    -0.05900
C870        C  0.39291305  0.75800059  0.07594958     0.21000
C871        C  0.41504035  0.78982589  0.10040556     0.19200
C872        C  0.41651500  0.80498359  0.12182912    -0.17400
C873        C  0.39776595  0.80398241  0.14012452    -0.19600
C874        C  0.37721348  0.78776944  0.13735038     0.20700
C875        C  0.35858039  0.78640491  0.15587161    -0.32600
C876        C  0.33845334  0.76943828  0.15366950     0.01300
C877        C  0.33680839  0.75423764  0.13212564    -0.24000
C878        C  0.41199403  0.75903645  0.05774604    -0.28500
C879        C  0.43258451  0.77533451  0.06070795     0.07000
C880        C  0.43380895  0.79078036  0.08201230    -0.27200
H881        H  0.37079126  0.72981197  0.05688182     0.11700
H882        H  0.33813381  0.72772752  0.08920117     0.12900
H883        H  0.43221877  0.81760810  0.12446585     0.11900
H884        H  0.39940554  0.81583232  0.15653121     0.11200
H885        H  0.36027685  0.79796190  0.17249437     0.16600
H886        H  0.32144645  0.74105169  0.13025199     0.12500
H887        H  0.41096382  0.74712386  0.04132213     0.15300
H888        H  0.44948153  0.80354852  0.08422311     0.15100
C889        C  0.28378594  0.91011802  0.38551386    -0.17800
C890        C  0.28315612  0.89257194  0.36606683    -0.19900
C891        C  0.26114878  0.87904469  0.36102654     0.20700
C892        C  0.23939299  0.88358751  0.37533242    -0.02800
C893        C  0.24000310  0.90135369  0.39493290    -0.05900
C894        C  0.26239254  0.91449561  0.40016633     0.21000
C895        C  0.21832693  0.90571394  0.40948481     0.19200
C896        C  0.19618737  0.89256466  0.40404295    -0.17400
C897        C  0.19564181  0.87482752  0.38471750    -0.19600
C898        C  0.21721174  0.86997522  0.37045136     0.20700
C899        C  0.21724926  0.85116739  0.35201373    -0.32600
C900        C  0.23922091  0.84577256  0.33843470     0.01300
C901        C  0.26082807  0.86042722  0.34253274    -0.24000
C902        C  0.26298019  0.93177345  0.41995056    -0.28500
C903        C  0.24146792  0.93616423  0.43447055     0.07000
C904        C  0.21920987  0.92312161  0.42920077    -0.27200
H905        H  0.30107195  0.92013137  0.38921951     0.11700
H906        H  0.30001214  0.88929903  0.35521029     0.12900
H907        H  0.17934858  0.89579834  0.41492567     0.11900
H908        H  0.17842454  0.86464488  0.38115906     0.11200
H909        H  0.20045258  0.84015031  0.34889996     0.16600
H910        H  0.27786653  0.85660432  0.33213606     0.12500
H911        H  0.28005885  0.94203800  0.42400195     0.15300
H912        H  0.20260333  0.92676378  0.44033275     0.15100
C913        C  0.10791982  0.63847616  0.28375699    -0.17800
C914        C  0.08926477  0.62005764  0.28455630    -0.19900
C915        C  0.08568202  0.60386099  0.26416785     0.20700
C916        C  0.10069929  0.60655854  0.24252924    -0.02800
C917        C  0.11943618  0.62525486  0.24167497    -0.05900
C918        C  0.12321786  0.64107034  0.26250552     0.21000
C919        C  0.13468721  0.62777973  0.22019566     0.19200
C920        C  0.13072556  0.61189917  0.19959972    -0.17400
C921        C  0.11217916  0.59333224  0.20045086    -0.19600
C922        C  0.09726822  0.59032769  0.22190817     0.20700
C923        C  0.07918709  0.57123814  0.22325794    -0.32600
C924        C  0.06450571  0.56836295  0.24488702     0.01300
C925        C  0.06756926  0.58482802  0.26513433    -0.24000
C926        C  0.14257814  0.65883972  0.26197356    -0.28500
C927        C  0.15837830  0.66107151  0.24091712     0.07000
C928        C  0.15398958  0.64572415  0.21991207    -0.27200
H929        H  0.11055906  0.65053312  0.29988185     0.11700
H930        H  0.07783675  0.61828233  0.30125044     0.12900
H931        H  0.14219675  0.61362807  0.18293202     0.11900
H932        H  0.10967998  0.58113630  0.18441317     0.11200
H933        H  0.07648205  0.55858274  0.20759542     0.16600
H934        H  0.05597711  0.58258216  0.28167803     0.12500
H935        H  0.14566434  0.67056829  0.27827080     0.15300
H936        H  0.16603414  0.64720948  0.20361877     0.15100
C937        C  0.63401196  0.31496592  0.11869377    -0.17800
C938        C  0.61730094  0.31847595  0.09874842    -0.19900
C939        C  0.59909005  0.30028350  0.09317741     0.20700
C940        C  0.59757553  0.27844082  0.10810961    -0.02800
C941        C  0.61441479  0.27493600  0.12832441    -0.05900
C942        C  0.63281146  0.29321763  0.13351993     0.21000
C943        C  0.61303242  0.25300066  0.14310550     0.19200
C944        C  0.59475137  0.23485739  0.13761304    -0.17400
C945        C  0.57806158  0.23834208  0.11766530    -0.19600
C946        C  0.57933981  0.26001643  0.10277098     0.20700
C947        C  0.56272873  0.26356808  0.08264627    -0.32600
C948        C  0.56415524  0.28520827  0.06762372     0.01300
C949        C  0.58239534  0.30350725  0.07298266    -0.24000
C950        C  0.64999355  0.28922357  0.15310060    -0.28500
C951        C  0.64911106  0.26717078  0.16771939     0.07000
C952        C  0.63024390  0.24933690  0.16276525    -0.27200
H953        H  0.64801639  0.32921706  0.12241712     0.11700
H954        H  0.61872337  0.33538582  0.08757647     0.12900
H955        H  0.59343445  0.21787093  0.14868343     0.11900
H956        H  0.56418628  0.22400240  0.11382330     0.11200
H957        H  0.54859709  0.24951889  0.07859166     0.16600
H958        H  0.58337388  0.32028915  0.06155486     0.12500
H959        H  0.66441523  0.30311920  0.15661539     0.15300
H960        H  0.62947436  0.23217610  0.17363305     0.15100
C961        C  0.91269435  0.38584660  0.29601557    -0.17800
C962        C  0.89268958  0.36888020  0.29744054    -0.19900
C963        C  0.87324341  0.36964674  0.27974457     0.20700
C964        C  0.87401533  0.38768223  0.26038764    -0.02800
C965        C  0.89436955  0.40454692  0.25873047    -0.05900
C966        C  0.91371428  0.40374607  0.27675158     0.21000
C967        C  0.89532599  0.42221498  0.23905038     0.19200
C968        C  0.87599902  0.42291379  0.22126408    -0.17400
C969        C  0.85574438  0.40636618  0.22303335    -0.19600
C970        C  0.85458312  0.38872456  0.24251361     0.20700
C971        C  0.83464509  0.37168636  0.24399384    -0.32600
C972        C  0.83412697  0.35303066  0.26265731     0.01300
C973        C  0.85336895  0.35234295  0.28068705    -0.24000
C974        C  0.93353022  0.42105558  0.27533585    -0.28500
C975        C  0.93428753  0.43897406  0.25602663     0.07000
C976        C  0.91541388  0.43909325  0.23767832    -0.27200
H977        H  0.92740381  0.38493740  0.30997078     0.11700
H978        H  0.89244023  0.35513280  0.31238926     0.12900
H979        H  0.87648311  0.43635591  0.20604456     0.11900
H980        H  0.84104348  0.40726874  0.20906231     0.11200
H981        H  0.82015085  0.37219010  0.22977273     0.16600
H982        H  0.85320166  0.33797622  0.29506016     0.12500
H983        H  0.94814665  0.42094581  0.28943728     0.15300
H984        H  0.91614808  0.45279607  0.22267884     0.15100
C985        C  0.78299400  0.14561580  0.40056999    -0.17800
C986        C  0.78504929  0.12615257  0.41790777    -0.19900
C987        C  0.76938363  0.10512286  0.41616996     0.20700
C988        C  0.75137175  0.10365049  0.39683470    -0.02800
C989        C  0.74937263  0.12327588  0.37925132    -0.05900
C990        C  0.76531070  0.14427563  0.38118643     0.21000
C991        C  0.73170394  0.12175815  0.35960800     0.19200
C992        C  0.71587011  0.10075752  0.35806835    -0.17400
C993        C  0.71769207  0.08135223  0.37567372    -0.19600
C994        C  0.73545835  0.08256542  0.39503503     0.20700
C995        C  0.73754938  0.06321482  0.41274116    -0.32600
C996        C  0.75537467  0.06480347  0.43205341     0.01300
C997        C  0.77132810  0.08562832  0.43355425    -0.24000
C998        C  0.76378096  0.16337695  0.36339101    -0.28500
C999        C  0.74690927  0.16174302  0.34320006     0.07000
C1000       C  0.73061433  0.14100557  0.34161076    -0.27200
H1001       H  0.79539716  0.16164041  0.40219480     0.11700
H1002       H  0.79891400  0.12753648  0.43266926     0.12900
H1003       H  0.70216622  0.09927526  0.34316787     0.11900
H1004       H  0.70528979  0.06533051  0.37407031     0.11200
H1005       H  0.72518112  0.04709703  0.41179355     0.16600
H1006       H  0.78499574  0.08671859  0.44854932     0.12500
H1007       H  0.77649793  0.17917873  0.36486502     0.15300
H1008       H  0.71754601  0.13955786  0.32613600     0.15100
C1009       C  0.62116154  0.73752813  0.92278022    -0.17800
C1010       C  0.64171683  0.73540326  0.90660022    -0.19900
C1011       C  0.64566045  0.75317502  0.88758164     0.20700
C1012       C  0.62878360  0.77340076  0.88498745    -0.02800
C1013       C  0.60799335  0.77553142  0.90130061    -0.05900
C1014       C  0.60416760  0.75745816  0.92024088     0.21000
C1015       C  0.59095935  0.79563156  0.89853285     0.19200
C1016       C  0.59500540  0.81348756  0.87963816    -0.17400
C1017       C  0.61553200  0.81131821  0.86343030    -0.19600
C1018       C  0.63242467  0.79127415  0.86584086     0.20700
C1019       C  0.65247008  0.78844125  0.84901041    -0.32600
C1020       C  0.66899618  0.76791541  0.85093675     0.01300
C1021       C  0.66575213  0.75068006  0.87069629    -0.24000
C1022       C  0.58345270  0.75966399  0.93631416    -0.28500
C1023       C  0.56645103  0.77962809  0.93366482     0.07000
C1024       C  0.57024474  0.79752437  0.91472295    -0.27200
H1025       H  0.61849337  0.72350078  0.93722970     0.11700
H1026       H  0.65442900  0.71972043  0.90883730     0.12900
H1027       H  0.58219092  0.82906737  0.87728478     0.11900
H1028       H  0.61806434  0.82521853  0.84883392     0.11200
H1029       H  0.65475888  0.80187880  0.83393643     0.16600
H1030       H  0.67820665  0.73470429  0.87231558     0.12500
H1031       H  0.58053175  0.74594979  0.95103551     0.15300
H1032       H  0.55723084  0.81302202  0.91286472     0.15100
C1033       C  0.85797764  0.60588555  0.79090660    -0.17800
C1034       C  0.87393752  0.58511543  0.78952744    -0.19900
C1035       C  0.89458439  0.58525470  0.77322812     0.20700
C1036       C  0.89931094  0.60665877  0.75832610    -0.02800
C1037       C  0.88330320  0.62763521  0.75981594    -0.05900
C1038       C  0.86243064  0.62714809  0.77603848     0.21000
C1039       C  0.88791420  0.64887346  0.74469886     0.19200
C1040       C  0.90865543  0.64914060  0.72853836    -0.17400
C1041       C  0.92454625  0.62838081  0.72709255    -0.19600
C1042       C  0.91992982  0.60705284  0.74177877     0.20700
C1043       C  0.93566705  0.58616162  0.74028566    -0.32600
C1044       C  0.93132437  0.56496335  0.75529989     0.01300
C1045       C  0.91070163  0.56449482  0.77165661    -0.24000
C1046       C  0.84588064  0.64754285  0.77644771    -0.28500
C1047       C  0.84971658  0.66828373  0.76056883     0.07000
C1048       C  0.87121841  0.66910735  0.74531588    -0.27200
H1049       H  0.84199340  0.60521767  0.80342774     0.11700
H1050       H  0.87004984  0.56888250  0.80111165     0.12900
H1051       H  0.91242057  0.66529444  0.71679574     0.11900
H1052       H  0.94037835  0.62894864  0.71437849     0.11200
H1053       H  0.95166228  0.58644898  0.72773442     0.16600
H1054       H  0.90753967  0.54818378  0.78337287     0.12500
H1055       H  0.82939080  0.64670469  0.78829945     0.15300
H1056       H  0.87438191  0.68497099  0.73299866     0.15100
C1057       C  0.71940644  0.91629056  0.61564329    -0.17800
C1058       C  0.71969227  0.89934024  0.63559158    -0.19900
C1059       C  0.74051949  0.88378363  0.63952391     0.20700
C1060       C  0.76124121  0.88515675  0.62315503    -0.02800
C1061       C  0.76103968  0.90241714  0.60311986    -0.05900
C1062       C  0.74000341  0.91805320  0.59941146     0.21000
C1063       C  0.78185245  0.90404777  0.58684397     0.19200
C1064       C  0.80255185  0.88825455  0.59065104    -0.17400
C1065       C  0.80261116  0.87090334  0.61035142    -0.19600
C1066       C  0.78205515  0.86919151  0.62670350     0.20700
C1067       C  0.78174427  0.85159587  0.64631140    -0.32600
C1068       C  0.76108586  0.85017034  0.66265681     0.01300
C1069       C  0.74074720  0.86658751  0.65931103    -0.24000
C1070       C  0.74000978  0.93533325  0.57967258    -0.28500
C1071       C  0.76082105  0.93733960  0.56372979     0.07000
C1072       C  0.78160581  0.92155759  0.56719574    -0.27200
H1073       H  0.70311406  0.92811822  0.61298161     0.11700
H1074       H  0.70357525  0.89834711  0.64791903     0.12900
H1075       H  0.81867770  0.88927419  0.57834340     0.11900
H1076       H  0.81874623  0.85881755  0.61279932     0.11200
H1077       H  0.79742403  0.83889919  0.64873276     0.16600
H1078       H  0.72456429  0.86531252  0.67155162     0.12500
H1079       H  0.72399436  0.94751799  0.57680980     0.15300
H1080       H  0.79761321  0.92320070  0.55477823     0.15100
C1081       C  0.78440666  0.42165433  0.12206853    -0.17800
C1082       C  0.78512851  0.40313712  0.14065807    -0.19900
C1083       C  0.76753966  0.38354025  0.14070723     0.20700
C1084       C  0.74877074  0.38286413  0.12205818    -0.02800
C1085       C  0.74800226  0.40153717  0.10336149    -0.05900
C1086       C  0.76605487  0.42091340  0.10324627     0.21000
C1087       C  0.72931554  0.40064932  0.08463726     0.19200
C1088       C  0.71130173  0.38149542  0.08505202    -0.17400
C1089       C  0.71205917  0.36301702  0.10357600    -0.19600
C1090       C  0.73087391  0.36340397  0.12193009     0.20700
C1091       C  0.73214429  0.34453674  0.14005013    -0.32600
C1092       C  0.75099287  0.34475214  0.15851514     0.01300
C1093       C  0.76845967  0.36452958  0.15893230    -0.24000
C1094       C  0.76549171  0.43904921  0.08419953    -0.28500
C1095       C  0.74715814  0.43789124  0.06536436     0.07000
C1096       C  0.72907341  0.41882515  0.06572752    -0.27200
H1097       H  0.79831898  0.43646727  0.12231241     0.11700
H1098       H  0.79958126  0.40403036  0.15488350     0.12900
H1099       H  0.69675024  0.38068605  0.07092154     0.11900
H1100       H  0.69805760  0.34827727  0.10341083     0.11200
H1101       H  0.71821843  0.32971214  0.13982731     0.16600
H1102       H  0.78282957  0.36503428  0.17327280     0.12500
H1103       H  0.77930765  0.45396960  0.08384456     0.15300
H1104       H  0.71486517  0.41822287  0.05121778     0.15100
C1105       C  0.77819999  0.59856308  0.85661980    -0.17800
C1106       C  0.77773589  0.58055646  0.87561109    -0.19900
C1107       C  0.75798193  0.58002156  0.89292538     0.20700
C1108       C  0.73843462  0.59777497  0.89112986    -0.02800
C1109       C  0.73903366  0.61613273  0.87207691    -0.05900
C1110       C  0.75900969  0.61644314  0.85475776     0.21000
C1111       C  0.71989149  0.63434961  0.87057327     0.19200
C1112       C  0.70007112  0.63370468  0.88790028    -0.17400
C1113       C  0.69933163  0.61531954  0.90665406    -0.19600
C1114       C  0.71848011  0.59735176  0.90850918     0.20700
C1115       C  0.71819317  0.57907945  0.92748351    -0.32600
C1116       C  0.73772484  0.56145197  0.92933082     0.01300
C1117       C  0.75756666  0.56212964  0.91208971    -0.24000
C1118       C  0.75980473  0.63493473  0.83616917    -0.28500
C1119       C  0.74124971  0.65363327  0.83488232     0.07000
C1120       C  0.72120003  0.65311117  0.85207232    -0.27200
H1121       H  0.79371164  0.59864670  0.84350414     0.11700
H1122       H  0.79286472  0.56705571  0.87677850     0.12900
H1123       H  0.68519447  0.64750315  0.88702553     0.11900
H1124       H  0.68387648  0.61527652  0.91983249     0.11200
H1125       H  0.70296135  0.57860147  0.94093187     0.16600
H1126       H  0.77275022  0.54871615  0.91375310     0.12500
H1127       H  0.77547649  0.63527828  0.82323005     0.15300
H1128       H  0.70681729  0.66744081  0.85124190     0.15100
C1129       C  0.27470729  0.35426098  0.90242668    -0.17800
C1130       C  0.27664164  0.37283972  0.92082523    -0.19900
C1131       C  0.26159087  0.39438245  0.91965660     0.20700
C1132       C  0.24426867  0.39716352  0.89985354    -0.02800
C1133       C  0.24209171  0.37826325  0.88147040    -0.05900
C1134       C  0.25751719  0.35681062  0.88269003     0.21000
C1135       C  0.22467230  0.38096745  0.86174868     0.19200
C1136       C  0.20975378  0.40260102  0.86048825    -0.17400
C1137       C  0.21204624  0.42142492  0.87859387    -0.19600
C1138       C  0.22921275  0.41888394  0.89833108     0.20700
C1139       C  0.23163282  0.43768035  0.91654072    -0.32600
C1140       C  0.24877744  0.43493505  0.93628827     0.01300
C1141       C  0.26362404  0.41325343  0.93784110    -0.24000
C1142       C  0.25573727  0.33846543  0.86396018    -0.28500
C1143       C  0.23847764  0.34105782  0.84418746     0.07000
C1144       C  0.22278024  0.36221353  0.84339973    -0.27200
H1145       H  0.28669628  0.33790398  0.90361107     0.11700
H1146       H  0.29003555  0.37043586  0.93588484     0.12900
H1147       H  0.19638926  0.40502838  0.84540667     0.11900
H1148       H  0.20038193  0.43799117  0.87715415     0.11200
H1149       H  0.22015066  0.45442333  0.91550879     0.16600
H1150       H  0.27683931  0.41125461  0.95313691     0.12500
H1151       H  0.26797615  0.32224722  0.86463433     0.15300
H1152       H  0.20974982  0.36453830  0.82799530     0.15100
C1153       C  0.22593993  0.60419330  0.13859018    -0.17800
C1154       C  0.22485996  0.58658854  0.11924860    -0.19900
C1155       C  0.24460899  0.58453735  0.10203321     0.20700
C1156       C  0.26574748  0.60032433  0.10433698    -0.02800
C1157       C  0.26684357  0.61811616  0.12392275    -0.05900
C1158       C  0.24679158  0.62004429  0.14104616     0.21000
C1159       C  0.28782386  0.63409848  0.12622171     0.19200
C1160       C  0.30764175  0.63192942  0.10900839    -0.17400
C1161       C  0.30660096  0.61422051  0.08962089    -0.19600
C1162       C  0.28569995  0.59838859  0.08704868     0.20700
C1163       C  0.28436510  0.58059745  0.06762162    -0.32600
C1164       C  0.26340640  0.56471277  0.06547724     0.01300
C1165       C  0.24358545  0.56689824  0.08262526    -0.24000
C1166       C  0.24764522  0.63806215  0.16009924    -0.28500
C1167       C  0.26816135  0.65452613  0.16230864     0.07000
C1168       C  0.28836989  0.65220917  0.14540589    -0.27200
H1169       H  0.21037876  0.60549374  0.15158041     0.11700
H1170       H  0.20853062  0.57458979  0.11772731     0.12900
H1171       H  0.32391184  0.64401758  0.11046646     0.11900
H1172       H  0.32212033  0.61296590  0.07658076     0.11200
H1173       H  0.29967074  0.57881846  0.05437400     0.16600
H1174       H  0.22744232  0.55465083  0.08087187     0.12500
H1175       H  0.23191226  0.63963504  0.17286335     0.15300
H1176       H  0.30423420  0.66484737  0.14678356     0.15100
C1177       C  0.35097287  0.09387941  0.73612558    -0.17800
C1178       C  0.37012086  0.07594111  0.73586811    -0.19900
C1179       C  0.38966037  0.07699642  0.75343484     0.20700
C1180       C  0.38955549  0.09594111  0.77188537    -0.02800
C1181       C  0.37012760  0.11403111  0.77219974    -0.05900
C1182       C  0.35097605  0.11320661  0.75397431     0.21000
C1183       C  0.37023958  0.13328743  0.79031291     0.19200
C1184       C  0.38944664  0.13393018  0.80830757    -0.17400
C1185       C  0.40869752  0.11604066  0.80798009    -0.19600
C1186       C  0.40910860  0.09712458  0.78968001     0.20700
C1187       C  0.42880825  0.07956060  0.78866466    -0.32600
C1188       C  0.42919329  0.06082596  0.77007815     0.01300
C1189       C  0.40944341  0.05964280  0.75264098    -0.24000
C1190       C  0.33264354  0.13214350  0.75336189    -0.28500
C1191       C  0.33312816  0.15204070  0.77071107     0.07000
C1192       C  0.35165682  0.15201162  0.78959190    -0.27200
H1193       H  0.33635697  0.09286436  0.72207767     0.11700
H1194       H  0.36982994  0.06142057  0.72167609     0.12900
H1195       H  0.38981223  0.14853459  0.82241386     0.11900
H1196       H  0.42344673  0.11719149  0.82187685     0.11200
H1197       H  0.44388236  0.08043355  0.80224623     0.16600
H1198       H  0.40967289  0.04526992  0.73827621     0.12500
H1199       H  0.31844047  0.13178278  0.73885414     0.15300
H1200       H  0.35231721  0.16716725  0.80310653     0.15100
C1201       C  0.64194213  0.90214526  0.71311869    -0.17800
C1202       C  0.62397518  0.92131939  0.71427765    -0.19900
C1203       C  0.60271977  0.91886003  0.72964980     0.20700
C1204       C  0.59940851  0.89663591  0.74367390    -0.02800
C1205       C  0.61747272  0.87727246  0.74242754    -0.05900
C1206       C  0.63896690  0.88009825  0.72724824     0.21000
C1207       C  0.61418154  0.85526196  0.75672762     0.19200
C1208       C  0.59283218  0.85259442  0.77184702    -0.17400
C1209       C  0.57498023  0.87171019  0.77306951    -0.19600
C1210       C  0.57817958  0.89383568  0.75921856     0.20700
C1211       C  0.56059060  0.91326122  0.76085994    -0.32600
C1212       C  0.56374436  0.93554329  0.74716531     0.01300
C1213       C  0.58480270  0.93820542  0.73143571    -0.24000
C1214       C  0.65729220  0.86107785  0.72691867    -0.28500
C1215       C  0.65437674  0.83928669  0.74164520     0.07000
C1216       C  0.63250663  0.83647818  0.75615345    -0.27200
H1217       H  0.65828345  0.90465709  0.70131373     0.11700
H1218       H  0.62682356  0.93818119  0.70330613     0.12900
H1219       H  0.59004994  0.83579375  0.78293657     0.11900
H1220       H  0.55874210  0.86926607  0.78502703     0.11200
H1221       H  0.54437745  0.91117575  0.77295034     0.16600
H1222       H  0.58716877  0.95529614  0.72068715     0.12500
H1223       H  0.67408870  0.86356989  0.71575209     0.15300
H1224       H  0.62997667  0.81989556  0.76763891     0.15100
C1225       C  0.35433956  0.74051283  0.90783123    -0.17800
C1226       C  0.37436340  0.74279596  0.92454180    -0.19900
C1227       C  0.39409889  0.75945865  0.91952569     0.20700
C1228       C  0.39356930  0.77423037  0.89761856    -0.02800
C1229       C  0.37340313  0.77179087  0.88063414    -0.05900
C1230       C  0.35377418  0.75475217  0.88574592     0.21000
C1231       C  0.37306151  0.78610423  0.85842449     0.19200
C1232       C  0.39269475  0.80302211  0.85359150    -0.17400
C1233       C  0.41256061  0.80563548  0.87056686    -0.19600
C1234       C  0.41324796  0.79125918  0.89260200     0.20700
C1235       C  0.43317828  0.79357594  0.90972569    -0.32600
C1236       C  0.43386512  0.77869507  0.93151479     0.01300
C1237       C  0.41433653  0.76155190  0.93607173    -0.24000
C1238       C  0.33419721  0.75177995  0.86846595    -0.28500
C1239       C  0.33400859  0.76539039  0.84590037     0.07000
C1240       C  0.35337780  0.78285087  0.84123229    -0.27200
H1241       H  0.33941087  0.72738312  0.91205725     0.11700
H1242       H  0.37445625  0.73144167  0.94137686     0.12900
H1243       H  0.39275013  0.81415910  0.83660812     0.11900
H1244       H  0.42747896  0.81878611  0.86637166     0.11200
H1245       H  0.44808158  0.80695952  0.90622397     0.16600
H1246       H  0.41484476  0.74998407  0.95277612     0.12500
H1247       H  0.31948203  0.73827992  0.87229810     0.15300
H1248       H  0.35351435  0.79349147  0.82392634     0.15100
C1249       C  0.06929108  0.63155265  0.72960559    -0.17800
C1250       C  0.08672098  0.65103845  0.73153875    -0.19900
C1251       C  0.10769568  0.64862835  0.74721777     0.20700
C1252       C  0.11090210  0.62664381  0.76152772    -0.02800
C1253       C  0.09325862  0.60699018  0.75963868    -0.05900
C1254       C  0.07253179  0.60937678  0.74336637     0.21000
C1255       C  0.09660010  0.58480745  0.77368472     0.19200
C1256       C  0.11728280  0.58267277  0.78977409    -0.17400
C1257       C  0.13488772  0.60208490  0.79148287    -0.19600
C1258       C  0.13204456  0.62402959  0.77722514     0.20700
C1259       C  0.15034329  0.64302702  0.77775118    -0.32600
C1260       C  0.14771636  0.66461553  0.76278217     0.01300
C1261       C  0.12592408  0.66749385  0.74814136    -0.24000
C1262       C  0.05556153  0.58945366  0.74096618    -0.28500
C1263       C  0.05895601  0.56723522  0.75469919     0.07000
C1264       C  0.07933388  0.56509574  0.77120684    -0.27200
H1265       H  0.05341883  0.63371890  0.71713625     0.11700
H1266       H  0.08401180  0.66784449  0.72044566     0.12900
H1267       H  0.12004155  0.56582447  0.80078199     0.11900
H1268       H  0.15092178  0.59978593  0.80371464     0.11200
H1269       H  0.16698713  0.64059705  0.78913056     0.16600
H1270       H  0.12357461  0.68399780  0.73651403     0.12500
H1271       H  0.03968177  0.59111197  0.72839860     0.15300
H1272       H  0.08168818  0.54804965  0.78202866     0.15100
C1273       C  0.19656620  0.88577299  0.59062996    -0.17800
C1274       C  0.19576871  0.86856459  0.61044218    -0.19900
C1275       C  0.21505896  0.86791367  0.62830742     0.20700
C1276       C  0.23546283  0.88465719  0.62603379    -0.02800
C1277       C  0.23649277  0.90169436  0.60582054    -0.05900
C1278       C  0.21681702  0.90242508  0.58815959     0.21000
C1279       C  0.25718191  0.91804269  0.60335251     0.19200
C1280       C  0.27656046  0.91731722  0.62107666    -0.17400
C1281       C  0.27539848  0.90065181  0.64123946    -0.19600
C1282       C  0.25493047  0.88431820  0.64388137     0.20700
C1283       C  0.25385705  0.86737513  0.66385731    -0.32600
C1284       C  0.23391114  0.85019975  0.66603953     0.01300
C1285       C  0.21450623  0.85062685  0.64819407    -0.24000
C1286       C  0.21768206  0.91993212  0.56850696    -0.28500
C1287       C  0.23818740  0.93633675  0.56611193     0.07000
C1288       C  0.25801918  0.93501319  0.58335492    -0.27200
H1289       H  0.18135187  0.88602310  0.57719856     0.11700
H1290       H  0.18000145  0.85581839  0.61184250     0.12900
H1291       H  0.29255305  0.92975125  0.61942587     0.11900
H1292       H  0.29056486  0.90047852  0.65473557     0.11200
H1293       H  0.26917104  0.86693950  0.67719737     0.16600
H1294       H  0.19919137  0.83732273  0.64958794     0.12500
H1295       H  0.20239982  0.92100564  0.55517442     0.15300
H1296       H  0.27384089  0.94765160  0.58140829     0.15100
C1297       C  0.29528888  0.64062955  0.89520055    -0.17800
C1298       C  0.29555517  0.62339243  0.91503823    -0.19900
C1299       C  0.28060424  0.60171567  0.91418176     0.20700
C1300       C  0.26547012  0.59728009  0.89294038    -0.02800
C1301       C  0.26552745  0.61445029  0.87274128    -0.05900
C1302       C  0.28027245  0.63638332  0.87399912     0.21000
C1303       C  0.25039577  0.60990271  0.85153840     0.19200
C1304       C  0.23560425  0.58815764  0.85056007    -0.17400
C1305       C  0.23529816  0.57135441  0.87066477    -0.19600
C1306       C  0.24998078  0.57586162  0.89199259     0.20700
C1307       C  0.24932872  0.55934006  0.91239669    -0.32600
C1308       C  0.26473920  0.56318116  0.93346652     0.01300
C1309       C  0.28044522  0.58443482  0.93414500    -0.24000
C1310       C  0.27912632  0.65401337  0.85441133    -0.28500
C1311       C  0.26333619  0.65004903  0.83356483     0.07000
C1312       C  0.24960163  0.62754671  0.83204995    -0.27200
H1313       H  0.30671640  0.65738661  0.89652238     0.11700
H1314       H  0.30726118  0.62716232  0.93118402     0.12900
H1315       H  0.22391362  0.58435738  0.83440804     0.11900
H1316       H  0.22345832  0.55486929  0.86958082     0.11200
H1317       H  0.23696711  0.54319721  0.91181316     0.16600
H1318       H  0.29248900  0.58747528  0.95020667     0.12500
H1319       H  0.28982076  0.67124420  0.85589032     0.15300
H1320       H  0.23738161  0.62419887  0.81618208     0.15100
C1321       C  0.42597627  0.86601929  0.76584202    -0.17800
C1322       C  0.40806529  0.84701582  0.76368233    -0.19900
C1323       C  0.38521133  0.85158564  0.75151590     0.20700
C1324       C  0.38047561  0.87538103  0.74101499    -0.02800
C1325       C  0.39867849  0.89451594  0.74298480    -0.05900
C1326       C  0.42138969  0.88984954  0.75572566     0.21000
C1327       C  0.39401476  0.91836981  0.73253147     0.19200
C1328       C  0.37117095  0.92288965  0.72029654    -0.17400
C1329       C  0.35297510  0.90400548  0.71864139    -0.19600
C1330       C  0.35740647  0.88018781  0.72897926     0.20700
C1331       C  0.33899743  0.86129188  0.72805610    -0.32600
C1332       C  0.34339504  0.83766470  0.73906515     0.01300
C1333       C  0.36679203  0.83292217  0.75030098    -0.24000
C1334       C  0.43899670  0.90915732  0.75840056    -0.28500
C1335       C  0.43454717  0.93294959  0.74799374     0.07000
C1336       C  0.41216419  0.93731532  0.73475047    -0.27200
H1337       H  0.44336204  0.86211974  0.77557389     0.11700
H1338       H  0.41195036  0.82881952  0.77184578     0.12900
H1339       H  0.36726234  0.94112525  0.71223492     0.11900
H1340       H  0.33537413  0.90807317  0.70937806     0.11200
H1341       H  0.32099997  0.86526681  0.71951986     0.16600
H1342       H  0.37045356  0.81486978  0.75889697     0.12500
H1343       H  0.45619268  0.90577435  0.76868264     0.15300
H1344       H  0.40879620  0.95559358  0.72651113     0.15100
C1345       C  0.12903685  0.67877058  0.37935432    -0.17800
C1346       C  0.10811082  0.67697297  0.39510794    -0.19900
C1347       C  0.09841685  0.69839035  0.40692861     0.20700
C1348       C  0.11034063  0.72177836  0.40331425    -0.02800
C1349       C  0.13155502  0.72356316  0.38748909    -0.05900
C1350       C  0.14070296  0.70201511  0.37516180     0.21000
C1351       C  0.14320599  0.74700120  0.38353724     0.19200
C1352       C  0.13392119  0.76832361  0.39587527    -0.17400
C1353       C  0.11296669  0.76655572  0.41159150    -0.19600
C1354       C  0.10089593  0.74343545  0.41525841     0.20700
C1355       C  0.07959632  0.74155853  0.43066402    -0.32600
C1356       C  0.06758897  0.71835364  0.43418918     0.01300
C1357       C  0.07705721  0.69684722  0.42230147    -0.24000
C1358       C  0.16072899  0.70422664  0.35816354    -0.28500
C1359       C  0.17172121  0.72775388  0.35316366     0.07000
C1360       C  0.16331281  0.74890061  0.36661680    -0.27200
H1361       H  0.13587082  0.66200974  0.37013755     0.11700
H1362       H  0.09932607  0.65884608  0.39782273     0.12900
H1363       H  0.14265691  0.78646681  0.39308869     0.11900
H1364       H  0.10605270  0.78334123  0.42070254     0.11200
H1365       H  0.07243924  0.75804439  0.44015734     0.16600
H1366       H  0.06797974  0.67891270  0.42539651     0.12500
H1367       H  0.16704317  0.68776691  0.34805816     0.15300
H1368       H  0.17154840  0.76714190  0.36301157     0.15100
C1369       C  0.85305329  0.75884930  0.58465348    -0.17800
C1370       C  0.87211864  0.75549999  0.56691258    -0.19900
C1371       C  0.89144319  0.73814695  0.57113721     0.20700
C1372       C  0.89134847  0.72375412  0.59332380    -0.02800
C1373       C  0.87213364  0.72722795  0.61131113    -0.05900
C1374       C  0.85296383  0.74496020  0.60700918     0.21000
C1375       C  0.87235411  0.71326278  0.63375016     0.19200
C1376       C  0.89153029  0.69567887  0.63783571    -0.17400
C1377       C  0.91043971  0.69211429  0.61996471    -0.19600
C1378       C  0.91062841  0.70615571  0.59771654     0.20700
C1379       C  0.92991186  0.70317203  0.57997396    -0.32600
C1380       C  0.93049840  0.71792996  0.55810323     0.01300
C1381       C  0.91103514  0.73522094  0.55376308    -0.24000
C1382       C  0.83435011  0.74887597  0.62531514    -0.28500
C1383       C  0.83470016  0.73547100  0.64808030     0.07000
C1384       C  0.85370055  0.71744332  0.65191372    -0.27200
H1385       H  0.83849843  0.77252907  0.58099497     0.11700
H1386       H  0.87185022  0.76665133  0.54994535     0.12900
H1387       H  0.89200921  0.68478348  0.65496562     0.11900
H1388       H  0.92508004  0.67853765  0.62367532     0.11200
H1389       H  0.94472571  0.68966678  0.58330276     0.16600
H1390       H  0.91139103  0.74663732  0.53695542     0.12500
H1391       H  0.81998850  0.76287647  0.62209005     0.15300
H1392       H  0.85431819  0.70695506  0.66929879     0.15100
C1393       C  0.13484711  0.76604432  0.59434868    -0.17800
C1394       C  0.11615007  0.76253869  0.57631794    -0.19900
C1395       C  0.09872983  0.74296010  0.57874660     0.20700
C1396       C  0.10008277  0.72677297  0.59962402    -0.02800
C1397       C  0.11898712  0.73034952  0.61788913    -0.05900
C1398       C  0.13649003  0.75003178  0.61515576     0.21000
C1399       C  0.12032820  0.71430683  0.63886758     0.19200
C1400       C  0.10274423  0.69481682  0.64136310    -0.17400
C1401       C  0.08408638  0.69120009  0.62321528    -0.19600
C1402       C  0.08256527  0.70706209  0.60225762     0.20700
C1403       C  0.06388746  0.70363662  0.58391303    -0.32600
C1404       C  0.06250362  0.71975286  0.56305438     0.01300
C1405       C  0.07998311  0.73935218  0.56067290    -0.24000
C1406       C  0.15526683  0.75348582  0.63328781    -0.28500
C1407       C  0.15681446  0.73766861  0.65437177     0.07000
C1408       C  0.13914029  0.71810541  0.65699027    -0.27200
H1409       H  0.14805799  0.78131173  0.59200232     0.11700
H1410       H  0.11533190  0.77515872  0.56042869     0.12900
H1411       H  0.10343270  0.68232818  0.65736416     0.11900
H1412       H  0.07081047  0.67599546  0.62560060     0.11200
H1413       H  0.05044908  0.68848593  0.58576336     0.16600
H1414       H  0.07887712  0.75182954  0.54466761     0.12500
H1415       H  0.16847904  0.76879072  0.63112612     0.15300
H1416       H  0.13994650  0.70585393  0.67317639     0.15100
C1417       C  0.61322174  0.73518606  0.08180712    -0.17800
C1418       C  0.63255016  0.73356803  0.09941290    -0.19900
C1419       C  0.63723341  0.75348355  0.11595503     0.20700
C1420       C  0.62231598  0.77529728  0.11471668    -0.02800
C1421       C  0.60269361  0.77689473  0.09700100    -0.05900
C1422       C  0.59817226  0.75670526  0.08049136     0.21000
C1423       C  0.58755593  0.79860143  0.09588331     0.19200
C1424       C  0.59233692  0.81855564  0.11236567    -0.17400
C1425       C  0.61178288  0.81695743  0.12992932    -0.19600
C1426       C  0.62682988  0.79538344  0.13132331     0.20700
C1427       C  0.64601908  0.79336881  0.14927564    -0.32600
C1428       C  0.66075889  0.77146907  0.15093651     0.01300
C1429       C  0.65632361  0.75174716  0.13394704    -0.24000
C1430       C  0.57868412  0.75836491  0.06296975    -0.28500
C1431       C  0.56353229  0.77982103  0.06185288     0.07000
C1432       C  0.56795726  0.79989763  0.07831450    -0.27200
H1433       H  0.60997791  0.71953969  0.06926890     0.11700
H1434       H  0.64380113  0.71667072  0.10014690     0.12900
H1435       H  0.58096842  0.83537718  0.11174166     0.11900
H1436       H  0.61496621  0.83256382  0.14253311     0.11200
H1437       H  0.64907322  0.80864826  0.16231459     0.16600
H1438       H  0.66736053  0.73471915  0.13505727     0.12500
H1439       H  0.57521597  0.74299537  0.05012623     0.15300
H1440       H  0.55628067  0.81649745  0.07723535     0.15100
C1441       C  0.88340418  0.58746881  0.19806759    -0.17800
C1442       C  0.86618878  0.60708630  0.19505021    -0.19900
C1443       C  0.86596452  0.62742240  0.21177219     0.20700
C1444       C  0.88354173  0.62809390  0.23154279    -0.02800
C1445       C  0.90087190  0.60828341  0.23462740    -0.05900
C1446       C  0.90070171  0.58778819  0.21788253     0.21000
C1447       C  0.91820963  0.60890230  0.25460698     0.19200
C1448       C  0.91819633  0.62931202  0.27118524    -0.17400
C1449       C  0.90097409  0.64883731  0.26820513    -0.19600
C1450       C  0.88351827  0.64832312  0.24854732     0.20700
C1451       C  0.86556738  0.66732936  0.24612085    -0.32600
C1452       C  0.84728713  0.66642452  0.22708929     0.01300
C1453       C  0.84801139  0.64666668  0.20957752    -0.24000
C1454       C  0.91784311  0.56804626  0.22126230    -0.28500
C1455       C  0.93517162  0.56867358  0.24108123     0.07000
C1456       C  0.93525404  0.58911989  0.25765924    -0.27200
H1457       H  0.88307119  0.57194215  0.18498190     0.11700
H1458       H  0.85286539  0.60622004  0.17976419     0.12900
H1459       H  0.93139974  0.63009048  0.28658137     0.11900
H1460       H  0.90114644  0.66424264  0.28144596     0.11200
H1461       H  0.86529246  0.68242454  0.25972637     0.16600
H1462       H  0.83392500  0.64561783  0.19498906     0.12500
H1463       H  0.91799560  0.55234611  0.20836203     0.15300
H1464       H  0.94874847  0.58960145  0.27283599     0.15100
C1465       C  0.80271030  0.86292370  0.39199583    -0.17800
C1466       C  0.80265460  0.88077943  0.41121062    -0.19900
C1467       C  0.78388142  0.89917034  0.41231784     0.20700
C1468       C  0.76497545  0.89958880  0.39380183    -0.02800
C1469       C  0.76497906  0.88148265  0.37444787    -0.05900
C1470       C  0.78394918  0.86307376  0.37357027     0.21000
C1471       C  0.74587737  0.88164981  0.35616367     0.19200
C1472       C  0.72714545  0.90011733  0.35719607    -0.17400
C1473       C  0.72724568  0.91816773  0.37624746    -0.19600
C1474       C  0.74600516  0.91800729  0.39468262     0.20700
C1475       C  0.74613500  0.93590261  0.41398098    -0.32600
C1476       C  0.76493290  0.93560927  0.43245579     0.01300
C1477       C  0.78370054  0.91715509  0.43156378    -0.24000
C1478       C  0.78360100  0.84484824  0.35458756    -0.28500
C1479       C  0.76429055  0.84443482  0.33662043     0.07000
C1480       C  0.74561155  0.86311700  0.33743975    -0.27200
H1481       H  0.81737383  0.84887540  0.39163794     0.11700
H1482       H  0.81730391  0.88017972  0.42524433     0.12900
H1483       H  0.71234077  0.90054397  0.34331360     0.11900
H1484       H  0.71256068  0.93219323  0.37663338     0.11200
H1485       H  0.73164427  0.95013731  0.41470864     0.16600
H1486       H  0.79822799  0.91700319  0.44575523     0.12500
H1487       H  0.79796799  0.83048189  0.35431757     0.15300
H1488       H  0.73062658  0.86303270  0.32373048     0.15100
C1489       C  0.69116157  0.63467295  0.10407157    -0.17800
C1490       C  0.69094354  0.61644499  0.08517303    -0.19900
C1491       C  0.71168173  0.60063046  0.08163900     0.20700
C1492       C  0.73288657  0.60329813  0.09725777    -0.02800
C1493       C  0.73309756  0.62165420  0.11627517    -0.05900
C1494       C  0.71212530  0.63739609  0.11975264     0.21000
C1495       C  0.75436160  0.62426546  0.13175672     0.19200
C1496       C  0.77521086  0.60868397  0.12810057    -0.17400
C1497       C  0.77497700  0.59045910  0.10934514    -0.19600
C1498       C  0.75391757  0.58758332  0.09392794     0.20700
C1499       C  0.75351704  0.56917300  0.07531228    -0.32600
C1500       C  0.73246287  0.56628738  0.05990815     0.01300
C1501       C  0.71163934  0.58211397  0.06290798    -0.24000
C1502       C  0.71263834  0.65571611  0.13866759    -0.28500
C1503       C  0.73391688  0.65851705  0.15406677     0.07000
C1504       C  0.75458892  0.64255458  0.15051083    -0.27200
H1505       H  0.67492928  0.64665310  0.10641681     0.11700
H1506       H  0.67453414  0.61468590  0.07335115     0.12900
H1507       H  0.79170779  0.61057162  0.13978560     0.11900
H1508       H  0.79126579  0.57857163  0.10692319     0.11200
H1509       H  0.76954878  0.55693449  0.07275277     0.16600
H1510       H  0.69545298  0.57977593  0.05086133     0.12500
H1511       H  0.69667247  0.66805066  0.14107538     0.15300
H1512       H  0.77114833  0.64458710  0.16209909     0.15100
C1513       C  0.89454008  0.68956478  0.35213565    -0.17800
C1514       C  0.91388277  0.68739275  0.36973915    -0.19900
C1515       C  0.91473330  0.70329921  0.39067896     0.20700
C1516       C  0.89570068  0.72142319  0.39399310    -0.02800
C1517       C  0.87614421  0.72359533  0.37623157    -0.05900
C1518       C  0.87565252  0.70766310  0.35515855     0.21000
C1519       C  0.85731216  0.74194392  0.37939261     0.19200
C1520       C  0.85790109  0.75755007  0.40055050    -0.17400
C1521       C  0.87719767  0.75534506  0.41817132    -0.19600
C1522       C  0.89629964  0.73753099  0.41493887     0.20700
C1523       C  0.91601085  0.73561243  0.43224341    -0.32600
C1524       C  0.93509658  0.71765023  0.42911945     0.01300
C1525       C  0.93424778  0.70144447  0.40832923    -0.24000
C1526       C  0.85657356  0.71041023  0.33724437    -0.28500
C1527       C  0.83808695  0.72914321  0.33984664     0.07000
C1528       C  0.83850070  0.74467820  0.36115155    -0.27200
H1529       H  0.89445780  0.67718637  0.33603668     0.11700
H1530       H  0.92827694  0.67335201  0.36688713     0.12900
H1531       H  0.84354312  0.77163771  0.40336624     0.11900
H1532       H  0.87729185  0.76773888  0.43425162     0.11200
H1533       H  0.91652882  0.74803090  0.44831839     0.16600
H1534       H  0.94871425  0.68736152  0.40602940     0.12500
H1535       H  0.85662045  0.69843409  0.32083280     0.15300
H1536       H  0.82437312  0.75911322  0.36338855     0.15100
C1537       C  0.39965949  0.86132496  0.22557647    -0.17800
C1538       C  0.41688866  0.88101532  0.22454782    -0.19900
C1539       C  0.41872018  0.89812476  0.24439428     0.20700
C1540       C  0.40308122  0.89540567  0.26557242    -0.02800
C1541       C  0.38569184  0.87545347  0.26662751    -0.05900
C1542       C  0.38399442  0.85841905  0.24647858     0.21000
C1543       C  0.36983233  0.87273316  0.28762613     0.19200
C1544       C  0.37169888  0.88992245  0.30749170    -0.17400
C1545       C  0.38902132  0.90969130  0.30648936    -0.19600
C1546       C  0.40474321  0.91266615  0.28557868     0.20700
C1547       C  0.42210842  0.93250622  0.28422783    -0.32600
C1548       C  0.43774400  0.93505666  0.26317055     0.01300
C1549       C  0.43596137  0.91787948  0.24339590    -0.24000
C1550       C  0.36629169  0.83907163  0.24722503    -0.28500
C1551       C  0.34987544  0.83653175  0.26768597     0.07000
C1552       C  0.35204846  0.85323106  0.28807086    -0.27200
H1553       H  0.39848620  0.84843146  0.20992987     0.11700
H1554       H  0.42875064  0.88290523  0.20817317     0.12900
H1555       H  0.35965388  0.88816548  0.32375030     0.11900
H1556       H  0.39004574  0.92271992  0.32202861     0.11200
H1557       H  0.42369012  0.94578879  0.29951721     0.16600
H1558       H  0.44814505  0.91995088  0.22725544     0.12500
H1559       H  0.36483183  0.82640505  0.23140691     0.15300
H1560       H  0.33939248  0.85159428  0.30388282     0.15100
C1561       C  0.60811241  0.13660115  0.20350080    -0.17800
C1562       C  0.58832533  0.11933165  0.20487945    -0.19900
C1563       C  0.58879132  0.09978242  0.22252273     0.20700
C1564       C  0.60949329  0.09759469  0.23884602    -0.02800
C1565       C  0.62960631  0.11477055  0.23719597    -0.05900
C1566       C  0.62883606  0.13450942  0.21959064     0.21000
C1567       C  0.65029774  0.11238455  0.25346336     0.19200
C1568       C  0.65072991  0.09301082  0.27123668    -0.17400
C1569       C  0.63072322  0.07619794  0.27305338    -0.19600
C1570       C  0.61006065  0.07833411  0.25697461     0.20700
C1571       C  0.59003574  0.06143892  0.25868116    -0.32600
C1572       C  0.56968093  0.06295297  0.24206181     0.01300
C1573       C  0.56905120  0.08231554  0.22411992    -0.24000
C1574       C  0.64844711  0.15216110  0.21890866    -0.28500
C1575       C  0.66886946  0.15021921  0.23555366     0.07000
C1576       C  0.66987341  0.12984038  0.25228107    -0.27200
H1577       H  0.60715762  0.15165965  0.18990037     0.11700
H1578       H  0.57258125  0.12135371  0.19223013     0.12900
H1579       H  0.66644040  0.09102129  0.28393967     0.11900
H1580       H  0.63142685  0.06148239  0.28703674     0.11200
H1581       H  0.59038867  0.04675060  0.27273167     0.16600
H1582       H  0.55330089  0.08359770  0.21136277     0.12500
H1583       H  0.64740546  0.16781081  0.20598430     0.15300
H1584       H  0.68533742  0.12818845  0.26534450     0.15100
C1585       C  0.61667657  0.91088880  0.29922316    -0.17800
C1586       C  0.63318904  0.89063444  0.30130073    -0.19900
C1587       C  0.63302581  0.87139929  0.28335936     0.20700
C1588       C  0.61580803  0.87238988  0.26330893    -0.02800
C1589       C  0.59922729  0.89284250  0.26115521    -0.05900
C1590       C  0.59977552  0.91224864  0.27915067     0.21000
C1591       C  0.58226667  0.89397383  0.24087972     0.19200
C1592       C  0.58189737  0.87463130  0.22308802    -0.17400
C1593       C  0.59842359  0.85442055  0.22516291    -0.19600
C1594       C  0.61552963  0.85324044  0.24508735     0.20700
C1595       C  0.63300166  0.83374225  0.24654462    -0.32600
C1596       C  0.65105959  0.83326689  0.26575823     0.01300
C1597       C  0.65042032  0.85172504  0.28456808    -0.24000
C1598       C  0.58333067  0.93258679  0.27678288    -0.28500
C1599       C  0.56638296  0.93359548  0.25675028     0.07000
C1600       C  0.56591178  0.91437946  0.23883853    -0.27200
H1601       H  0.61725032  0.92558923  0.31322214     0.11700
H1602       H  0.64630393  0.89016726  0.31678451     0.12900
H1603       H  0.56894875  0.87522585  0.20746864     0.11900
H1604       H  0.59803624  0.83985820  0.21100870     0.11200
H1605       H  0.63325986  0.81955040  0.23200042     0.16600
H1606       H  0.66433293  0.85160234  0.29936172     0.12500
H1607       H  0.58331885  0.94742018  0.29067557     0.15300
H1608       H  0.55255746  0.91526115  0.22355488     0.15100
C1609       C  0.61558038  0.32764992  0.90254518    -0.17800
C1610       C  0.63223151  0.32478840  0.88240798    -0.19900
C1611       C  0.63256898  0.30250160  0.86834691     0.20700
C1612       C  0.61580685  0.28299641  0.87455727    -0.02800
C1613       C  0.59904112  0.28585122  0.89491971    -0.05900
C1614       C  0.59896053  0.30826738  0.90905392     0.21000
C1615       C  0.58245167  0.26619322  0.90118711     0.19200
C1616       C  0.58270014  0.24397276  0.88712146    -0.17400
C1617       C  0.59932917  0.24113025  0.86705614    -0.19600
C1618       C  0.61600377  0.26047246  0.86065204     0.20700
C1619       C  0.63324551  0.25738515  0.84097940    -0.32600
C1620       C  0.65058168  0.27641527  0.83501736     0.01300
C1621       C  0.64975388  0.29913817  0.84860259    -0.24000
C1622       C  0.58222631  0.31084505  0.92933671    -0.28500
C1623       C  0.56559026  0.29129766  0.93545738     0.07000
C1624       C  0.56584564  0.26908575  0.92134985    -0.27200
H1625       H  0.61578361  0.34500257  0.91310263     0.11700
H1626       H  0.64498931  0.33996920  0.87793902     0.12900
H1627       H  0.57007147  0.22871877  0.89170251     0.11900
H1628       H  0.59925171  0.22369955  0.85662524     0.07200
H1629       H  0.63367573  0.23977414  0.83084712     0.16600
H1630       H  0.66303603  0.31394563  0.84438793     0.12500
H1631       H  0.58186725  0.32804461  0.94015462     0.15300
H1632       H  0.55290914  0.25411187  0.92607320     0.15100
C1633       C  0.87260992  0.41656765  0.77076174    -0.17800
C1634       C  0.85417337  0.39798434  0.76967272    -0.19900
C1635       C  0.85585497  0.37859139  0.75199868     0.20700
C1636       C  0.87610805  0.37803040  0.73501832    -0.02800
C1637       C  0.89460769  0.39694572  0.73596026    -0.05900
C1638       C  0.89291331  0.41615860  0.75406817     0.21000
C1639       C  0.91485186  0.39653407  0.71893600     0.19200
C1640       C  0.91655993  0.37703473  0.70134441    -0.17400
C1641       C  0.89836260  0.35809841  0.70060878    -0.19600
C1642       C  0.87802533  0.35844762  0.71731619     0.20700
C1643       C  0.85982835  0.33936336  0.71696793    -0.32600
C1644       C  0.83984761  0.33958575  0.73421658     0.01300
C1645       C  0.83786771  0.35950091  0.75139509    -0.24000
C1646       C  0.91157746  0.43459420  0.75524642    -0.28500
C1647       C  0.93156836  0.43463677  0.73807779     0.07000
C1648       C  0.93301664  0.41559238  0.71987344    -0.27200
H1649       H  0.87100647  0.43125316  0.78469694     0.11700
H1650       H  0.83871392  0.39864147  0.78283428     0.12900
H1651       H  0.93204893  0.37635918  0.68822511     0.11900
H1652       H  0.90021144  0.34315950  0.68697634     0.11200
H1653       H  0.86164206  0.32399477  0.70379976     0.16600
H1654       H  0.82254244  0.35990931  0.76474033     0.12500
H1655       H  0.91055066  0.44907261  0.76947239     0.15300
H1656       H  0.94838998  0.41559501  0.70658187     0.15100
C1657       C  0.76897190  0.14858029  0.59681854    -0.17800
C1658       C  0.77191859  0.13006278  0.57848345    -0.19900
C1659       C  0.75730178  0.10817519  0.57912036     0.20700
C1660       C  0.73920530  0.10512849  0.59820474    -0.02800
C1661       C  0.73619043  0.12388418  0.61672649    -0.05900
C1662       C  0.75134416  0.14555965  0.61612387     0.21000
C1663       C  0.71843633  0.12069046  0.63612325     0.19200
C1664       C  0.70367985  0.09886555  0.63659790    -0.17400
C1665       C  0.70661589  0.08031995  0.61821466    -0.19600
C1666       C  0.72440160  0.08319371  0.59901376     0.20700
C1667       C  0.72782596  0.06444949  0.58077505    -0.32600
C1668       C  0.74611666  0.06717470  0.56192814     0.01300
C1669       C  0.76067390  0.08918103  0.56119203    -0.24000
C1670       C  0.74919343  0.16348287  0.63523830    -0.28500
C1671       C  0.73211537  0.16016770  0.65510927     0.07000
C1672       C  0.71633084  0.13897862  0.65508253    -0.27200
H1673       H  0.78073282  0.16514458  0.59608012     0.11700
H1674       H  0.78583224  0.13275253  0.56393297     0.12900
H1675       H  0.69001713  0.09600976  0.65135175     0.11900
H1676       H  0.69510537  0.06359482  0.61915133     0.11200
H1677       H  0.71642038  0.04761972  0.58127905     0.16600
H1678       H  0.77475989  0.09136368  0.54670155     0.12500
H1679       H  0.76139702  0.17975773  0.63503694     0.15300
H1680       H  0.70332581  0.13610529  0.67043039     0.15100
C1681       C  0.72659883  0.35465487  0.90051927    -0.17800
C1682       C  0.72517081  0.37358475  0.91856161    -0.19900
C1683       C  0.74279183  0.39310970  0.91881600     0.20700
C1684       C  0.76233666  0.39338246  0.90096424    -0.02800
C1685       C  0.76387724  0.37412797  0.88281290    -0.05900
C1686       C  0.74574609  0.35485915  0.88248615     0.21000
C1687       C  0.78318795  0.37444517  0.86470825     0.19200
C1688       C  0.80094974  0.39391843  0.86515823    -0.17400
C1689       C  0.79937091  0.41307219  0.88309823    -0.19600
C1690       C  0.78003390  0.41309769  0.90097505     0.20700
C1691       C  0.77780510  0.43259229  0.91863042    -0.32600
C1692       C  0.75816243  0.43244288  0.93624437     0.01300
C1693       C  0.74092965  0.41255437  0.93636749    -0.24000
C1694       C  0.74662582  0.33645869  0.86376868    -0.28500
C1695       C  0.76537961  0.33687779  0.84520035     0.07000
C1696       C  0.78394830  0.35569086  0.84611528    -0.27200
H1697       H  0.71254156  0.33997261  0.90050779     0.11700
H1698       H  0.71008130  0.37311300  0.93214988     0.12900
H1699       H  0.81590255  0.39451120  0.85142534     0.11900
H1700       H  0.81316019  0.42800052  0.88284344     0.11200
H1701       H  0.79111917  0.44796338  0.91861132     0.16600
H1702       H  0.72579042  0.41253570  0.94993512     0.12500
H1703       H  0.73226683  0.32206027  0.86333952     0.15300
H1704       H  0.79835232  0.35634704  0.83179863     0.15100
C1705       C  0.63248014  0.10438630  0.72825332    -0.17800
C1706       C  0.61372513  0.08613143  0.72821797    -0.19900
C1707       C  0.59674771  0.08448820  0.74818924     0.20700
C1708       C  0.59863008  0.10137238  0.76847402    -0.02800
C1709       C  0.61763994  0.11982153  0.76852024    -0.05900
C1710       C  0.63457307  0.12127602  0.74827390     0.21000
C1711       C  0.61959103  0.13688038  0.78864580     0.19200
C1712       C  0.60249131  0.13519721  0.80862157    -0.17400
C1713       C  0.58362445  0.11685452  0.80859961    -0.19600
C1714       C  0.58149497  0.09987090  0.78859593     0.20700
C1715       C  0.56263273  0.08140077  0.78826831    -0.32600
C1716       C  0.56092818  0.06448224  0.76811844     0.01300
C1717       C  0.57793425  0.06622411  0.74816311    -0.24000
C1718       C  0.65315625  0.13977813  0.74811774    -0.28500
C1719       C  0.65515282  0.15718675  0.76780976     0.07000
C1720       C  0.63837319  0.15547186  0.78819754    -0.27200
H1721       H  0.64532861  0.10534284  0.71255235     0.11700
H1722       H  0.61247507  0.07330394  0.71252774     0.12900
H1723       H  0.60365252  0.14812869  0.82423226     0.11900
H1724       H  0.57066440  0.11598716  0.82421148     0.11200
H1725       H  0.54942389  0.07999761  0.80364583     0.16600
H1726       H  0.57644405  0.05322615  0.73260735     0.12500
H1727       H  0.66583556  0.14085245  0.73227715     0.15300
H1728       H  0.63958811  0.16885296  0.80343165     0.15100
C1729       C  0.42588923  0.24104454  0.12064551    -0.17800
C1730       C  0.40931966  0.23810155  0.14078858    -0.19900
C1731       C  0.38869984  0.25421428  0.14360188     0.20700
C1732       C  0.38486066  0.27359047  0.12597727    -0.02800
C1733       C  0.40165198  0.27662872  0.10567808    -0.05900
C1734       C  0.42219829  0.26020237  0.10298190     0.21000
C1735       C  0.39784126  0.29605725  0.08808111     0.19200
C1736       C  0.37723774  0.31216936  0.09090594    -0.17400
C1737       C  0.36048952  0.30901459  0.11086599    -0.19600
C1738       C  0.36410731  0.28977452  0.12846441     0.20700
C1739       C  0.34705521  0.28615787  0.14819381    -0.32600
C1740       C  0.35038870  0.26656173  0.16561182     0.01300
C1741       C  0.37157965  0.25095159  0.16339394    -0.24000
C1742       C  0.43876642  0.26331701  0.08277417    -0.28500
C1743       C  0.43532059  0.28284084  0.06535641     0.07000
C1744       C  0.41477072  0.29911490  0.06809794    -0.27200
H1745       H  0.44160865  0.22830672  0.11887560     0.11700
H1746       H  0.41254812  0.22309563  0.15409016     0.12900
H1747       H  0.37400892  0.32717333  0.07760490     0.11900
H1748       H  0.34462533  0.32159476  0.11248601     0.11200
H1749       H  0.33085853  0.29834095  0.14966154     0.16600
H1750       H  0.37428882  0.23568079  0.17652428     0.12500
H1751       H  0.45464935  0.25080095  0.08071703     0.15300
H1752       H  0.41220282  0.31429095  0.05482828     0.15100
C1753       C  0.08395133  0.38064927  0.29272140    -0.17800
C1754       C  0.10299718  0.36253511  0.29283528    -0.19900
C1755       C  0.12299463  0.36400560  0.27576037     0.20700
C1756       C  0.12367937  0.38391315  0.25832746    -0.02800
C1757       C  0.10434339  0.40206528  0.25805909    -0.05900
C1758       C  0.08444110  0.40051028  0.27543235     0.21000
C1759       C  0.10492210  0.42171842  0.24034479     0.19200
C1760       C  0.12478937  0.42314177  0.22317115    -0.17400
C1761       C  0.14397822  0.40528961  0.22353917    -0.19600
C1762       C  0.14359699  0.38563065  0.24102665     0.20700
C1763       C  0.16264602  0.36751647  0.24123723    -0.32600
C1764       C  0.16206581  0.34733647  0.25829093     0.01300
C1765       C  0.14213688  0.34580916  0.27560013    -0.24000
C1766       C  0.06545268  0.41884267  0.27519247    -0.28500
C1767       C  0.06594576  0.43851125  0.25756942     0.07000
C1768       C  0.08565151  0.43961179  0.24007826    -0.27200
H1769       H  0.06878912  0.37908654  0.30614378     0.11700
H1770       H  0.10208647  0.34736384  0.30631328     0.12900
H1771       H  0.12551102  0.43810588  0.20945243     0.11900
H1772       H  0.15909682  0.40681285  0.21005678     0.11200
H1773       H  0.17765815  0.36886213  0.22760688     0.16600
H1774       H  0.14132639  0.33031439  0.28872441     0.12500
H1775       H  0.05028355  0.41789238  0.28868138     0.15300
H1776       H  0.08597322  0.45456144  0.22630630     0.15100
C1777       C  0.29158907  0.08562082  0.38037928    -0.17800
C1778       C  0.29327282  0.10550171  0.36332664    -0.19900
C1779       C  0.27734632  0.12634411  0.36549574     0.20700
C1780       C  0.25947457  0.12709882  0.38499323    -0.02800
C1781       C  0.25745450  0.10684781  0.40189304    -0.05900
C1782       C  0.27374311  0.08610002  0.39970015     0.21000
C1783       C  0.23908922  0.10735532  0.42092977     0.19200
C1784       C  0.22318258  0.12816983  0.42316184    -0.17400
C1785       C  0.22538539  0.14835620  0.40661158    -0.19600
C1786       C  0.24338449  0.14793648  0.38743439     0.20700
C1787       C  0.24506694  0.16770627  0.37026110    -0.32600
C1788       C  0.26220657  0.16677618  0.35020179     0.01300
C1789       C  0.27856076  0.14615035  0.34818278    -0.24000
C1790       C  0.27195354  0.06630167  0.41694354    -0.28500
C1791       C  0.25359670  0.06669553  0.43584477     0.07000
C1792       C  0.23704231  0.08711350  0.43749892    -0.27200
H1793       H  0.30416170  0.06979560  0.37836953     0.11700
H1794       H  0.30703771  0.10456853  0.34842208     0.12900
H1795       H  0.20905067  0.12885068  0.43773416     0.11900
H1796       H  0.21282649  0.16419519  0.40865072     0.11200
H1797       H  0.23218210  0.18333483  0.37193660     0.16600
H1798       H  0.29172667  0.14513485  0.33274081     0.12500
H1799       H  0.28482916  0.05061863  0.41579155     0.15300
H1800       H  0.22289853  0.08737911  0.45209931     0.15100
C1801       C  0.27268705  0.37064778  0.07381399    -0.17800
C1802       C  0.27081071  0.35034038  0.09030503    -0.19900
C1803       C  0.25445073  0.35132729  0.11088597     0.20700
C1804       C  0.23942034  0.37278790  0.11457021    -0.02800
C1805       C  0.24128522  0.39331486  0.09787197    -0.05900
C1806       C  0.25819099  0.39227691  0.07756530     0.21000
C1807       C  0.22650741  0.41496564  0.10168814     0.19200
C1808       C  0.20979486  0.41571091  0.12200412    -0.17400
C1809       C  0.20808868  0.39544669  0.13865369    -0.19600
C1810       C  0.22299356  0.37399753  0.13525794     0.20700
C1811       C  0.22243534  0.35416902  0.15265957    -0.32600
C1812       C  0.23823673  0.33315941  0.14976822     0.01300
C1813       C  0.25359877  0.33162747  0.12832949    -0.24000
C1814       C  0.26034122  0.41286913  0.06136740    -0.28500
C1815       C  0.24565136  0.43447442  0.06492826     0.07000
C1816       C  0.22873385  0.43541886  0.08513295    -0.27200
H1817       H  0.28565358  0.36951608  0.05822479     0.11700
H1818       H  0.28246905  0.33400057  0.08717985     0.12900
H1819       H  0.19821966  0.43209513  0.12518386     0.11900
H1820       H  0.19532086  0.39669232  0.15439675     0.11200
H1821       H  0.21048359  0.35563869  0.16901982     0.16600
H1822       H  0.26585065  0.31561626  0.12577659     0.12500
H1823       H  0.27330194  0.41208541  0.04572802     0.15300
H1824       H  0.21719484  0.45194304  0.08774137     0.15100
C1825       C  0.36070314  0.09880611  0.28213851    -0.17800
C1826       C  0.38035179  0.08155946  0.28352429    -0.19900
C1827       C  0.39996764  0.08234919  0.26605527     0.20700
C1828       C  0.39991937  0.10079115  0.24706980    -0.02800
C1829       C  0.38017807  0.11837991  0.24582103    -0.05900
C1830       C  0.36044656  0.11723449  0.26336767     0.21000
C1831       C  0.38023393  0.13712923  0.22713225     0.19200
C1832       C  0.40000157  0.13794687  0.20974855    -0.17400
C1833       C  0.41941155  0.12027736  0.21076622    -0.19600
C1834       C  0.41952557  0.10161055  0.22931973     0.20700
C1835       C  0.43869399  0.08358585  0.23031398    -0.32600
C1836       C  0.43860050  0.06500057  0.24901527     0.01300
C1837       C  0.41946826  0.06483535  0.26709830    -0.24000
C1838       C  0.34094378  0.13474086  0.26214359    -0.28500
C1839       C  0.34096086  0.15386999  0.24394125     0.07000
C1840       C  0.36069660  0.15486351  0.22638812    -0.27200
H1841       H  0.34572518  0.09778375  0.29582274     0.11700
H1842       H  0.38012900  0.06750141  0.29818556     0.12900
H1843       H  0.40041616  0.15222051  0.19530527     0.11900
H1844       H  0.43434937  0.12122289  0.19703601     0.11200
H1845       H  0.45350902  0.08373462  0.21640176     0.16600
H1846       H  0.41956197  0.05065776  0.28167045     0.12500
H1847       H  0.32609377  0.13388976  0.27598985     0.15300
H1848       H  0.36102690  0.16957962  0.21237928     0.15100
C1849       C  0.92605766  0.25869376  0.37991732    -0.17800
C1850       C  0.91001271  0.26263327  0.35953279    -0.19900
C1851       C  0.89126793  0.24510055  0.35365920     0.20700
C1852       C  0.88907724  0.22307510  0.36822123    -0.02800
C1853       C  0.90532232  0.21907410  0.38884877    -0.05900
C1854       C  0.92372148  0.23712267  0.39483209     0.21000
C1855       C  0.90289395  0.19724404  0.40368860     0.19200
C1856       C  0.88454835  0.17940924  0.39741532    -0.17400
C1857       C  0.86837870  0.18344367  0.37710120    -0.19600
C1858       C  0.87026610  0.20536562  0.36258333     0.20700
C1859       C  0.85314085  0.21029636  0.34313130    -0.32600
C1860       C  0.85446036  0.23276329  0.32914343     0.01300
C1861       C  0.87414731  0.24967341  0.33409283    -0.24000
C1862       C  0.93938558  0.23337052  0.41566314    -0.28500
C1863       C  0.93699708  0.21181621  0.43070006     0.07000
C1864       C  0.91875728  0.19374191  0.42454071    -0.27200
H1865       H  0.94016412  0.27268444  0.38417570     0.11700
H1866       H  0.91202677  0.27962609  0.34857807     0.12900
H1867       H  0.88247669  0.16246319  0.40843140     0.11900
H1868       H  0.85411626  0.16956471  0.37298247     0.11200
H1869       H  0.83822549  0.19697791  0.33945297     0.16600
H1870       H  0.87539839  0.26702730  0.32358289     0.12500
H1871       H  0.95359174  0.24718434  0.42023133     0.15300
H1872       H  0.91709312  0.17696022  0.43588828     0.15100
C1873       C  0.10615450  0.26613919  0.62348101    -0.17800
C1874       C  0.08919597  0.26225752  0.60382182    -0.19900
C1875       C  0.08380812  0.23790878  0.59537500     0.20700
C1876       C  0.09578893  0.21724435  0.60675087    -0.02800
C1877       C  0.11294960  0.22118336  0.62663240    -0.05900
C1878       C  0.11809052  0.24574813  0.63510156     0.21000
C1879       C  0.12507645  0.20056587  0.63788554     0.19200
C1880       C  0.11992005  0.17621993  0.62921228    -0.17400
C1881       C  0.10287121  0.17230700  0.60962301    -0.19600
C1882       C  0.09067016  0.19266414  0.59824599     0.20700
C1883       C  0.07346528  0.18892610  0.57856603    -0.32600
C1884       C  0.06133473  0.20947395  0.56735801     0.01300
C1885       C  0.06665029  0.23387286  0.57579939    -0.24000
C1886       C  0.13535248  0.24953537  0.65473138    -0.28500
C1887       C  0.14789891  0.22910206  0.66587760     0.07000
C1888       C  0.14241949  0.20464325  0.65733317    -0.27200
H1889       H  0.10996184  0.28514233  0.62958401     0.11700
H1890       H  0.08025360  0.27834170  0.59522959     0.12900
H1891       H  0.12912367  0.16015980  0.63757006     0.11900
H1892       H  0.09925105  0.15332300  0.60334813     0.11200
H1893       H  0.06940165  0.17012343  0.57199046     0.16600
H1894       H  0.05734655  0.24968591  0.56705738     0.12500
H1895       H  0.13959421  0.26847577  0.66077377     0.15300
H1896       H  0.15199683  0.18871407  0.66553829     0.15100
C1897       C  0.87078485  0.17189937  0.62150381    -0.17800
C1898       C  0.88726381  0.16965150  0.60109987    -0.19900
C1899       C  0.90066892  0.19055511  0.59222696     0.20700
C1900       C  0.89742077  0.21395063  0.60419987    -0.02800
C1901       C  0.88092205  0.21616525  0.62496838    -0.05900
C1902       C  0.86741255  0.19508062  0.63359223     0.21000
C1903       C  0.87780850  0.23954686  0.63693603     0.19200
C1904       C  0.89110317  0.26048372  0.62804474    -0.17400
C1905       C  0.90734310  0.25831859  0.60752623    -0.19600
C1906       C  0.91070938  0.23515264  0.59549000     0.20700
C1907       C  0.92738626  0.23277466  0.57516222    -0.32600
C1908       C  0.93106842  0.20947864  0.56335291     0.01300
C1909       C  0.91747402  0.18846024  0.57186452    -0.24000
C1910       C  0.85040832  0.19768209  0.65373891    -0.28500
C1911       C  0.84676556  0.22112927  0.66554027     0.07000
C1912       C  0.86105176  0.24179967  0.65719306    -0.27200
H1913       H  0.86060271  0.15547037  0.62779020     0.11700
H1914       H  0.88949154  0.15151919  0.59221984     0.12900
H1915       H  0.88886097  0.27862267  0.63691424     0.11900
H1916       H  0.91734663  0.27480341  0.60110305     0.11200
H1917       H  0.93797499  0.24892822  0.56879283     0.16600
H1918       H  0.92044134  0.17043084  0.56297253     0.12500
H1919       H  0.83954850  0.18158971  0.65977960     0.15300
H1920       H  0.85842267  0.26001673  0.66580889     0.15100
C1921       C  0.14222471  0.18814698  0.38975218    -0.17800
C1922       C  0.12485871  0.18354806  0.40897735    -0.19900
C1923       C  0.10432853  0.19963689  0.41265878     0.20700
C1924       C  0.10148228  0.22069689  0.39683416    -0.02800
C1925       C  0.11890087  0.22521294  0.37725940    -0.05900
C1926       C  0.13933735  0.20883696  0.37367457     0.21000
C1927       C  0.11582012  0.24611279  0.36128500     0.19200
C1928       C  0.09564358  0.26251628  0.36530007    -0.17400
C1929       C  0.07850959  0.25812729  0.38469738    -0.19600
C1930       C  0.08115645  0.23721521  0.40045767     0.20700
C1931       C  0.06374633  0.23251932  0.41966522    -0.32600
C1932       C  0.06611931  0.21141940  0.43534126     0.01300
C1933       C  0.08654808  0.19503377  0.43173273    -0.24000
C1934       C  0.15654218  0.21349096  0.35416838    -0.28500
C1935       C  0.15352415  0.23420498  0.33791021     0.07000
C1936       C  0.13298705  0.25036137  0.34167469    -0.27200
H1937       H  0.15787650  0.17541795  0.38738244     0.11700
H1938       H  0.12748171  0.16735878  0.42096068     0.12900
H1939       H  0.09305977  0.27875212  0.35337079     0.11900
H1940       H  0.06306281  0.27105517  0.38728437     0.11200
H1941       H  0.04812007  0.24522441  0.42240494     0.16600
H1942       H  0.08846936  0.17871645  0.44369193     0.12500
H1943       H  0.17235678  0.20097154  0.35170144     0.15300
H1944       H  0.13064081  0.26659130  0.32967212     0.15100
loop_ 
_geom_bond_atom_site_label_1 
_geom_bond_atom_site_label_2 
_geom_bond_distance 
_geom_bond_site_symmetry_2 
_ccdc_geom_bond_type 
N1            C6   1.357       .  A
N1            C5   1.356   1_655  A
N1           H33   1.036       .  S
N2            C9   1.356       .  A
N2           C10   1.357       .  A
N3            C8   1.356   1_455  A
N3            C7   1.357       .  A
N3           H34   1.039   1_455  S
N4           C11   1.358       .  A
N4           C12   1.356       .  A
C5           C13   1.387       .  A
C5           C21   1.424       .  A
C6           C22   1.426       .  A
C6           C14   1.388       .  A
C7           C15   1.387       .  A
C7           C24   1.423       .  A
C8           C23   1.423       .  A
C8           C16   1.388       .  A
C9           C21   1.423       .  A
C9           C17   1.387       .  A
C10          C24   1.422       .  A
C10          C18   1.386       .  A
C11          C19   1.386       .  A
C11          C22   1.425       .  A
C12          C20   1.387       .  A
C12          C23   1.424       .  A
C13          C14   1.377   1_455  A
C13          H25   1.082       .  S
C14          H26   1.082       .  S
C15          C16   1.375   1_455  A
C15          H27   1.082       .  S
C16          H28   1.082       .  S
C17          C18   1.374       .  A
C17          H29   1.082       .  S
C18          H30   1.082       .  S
C19          C20   1.378       .  A
C19          H31   1.082       .  S
C20          H32   1.082       .  S
C21        C1884   1.495       .  S
C22        C1908   1.502       .  S
C23        C1863   1.499       .  S
C24        C1932   1.504       .  S
O35         Mg37   2.161       .  S
O35         Mg43   2.158       .  S
O35          C70   1.235       .  S
C36          H75   1.081       .  S
C36          O49   1.234       .  S
C36          O73   1.269       .  A
Mg37         O66   2.160       .  S
Mg37         O81   2.310       .  S
Mg37         O77   2.258       .  S
Mg37         O48   2.294       .  S
O38         Mg80   2.165       .  S
O38         Mg63   2.173       .  S
O38          C59   1.237       .  S
O39          C70   1.270       .  A
O39         Mg63   2.306       .  S
C40        C1740   1.489       .  S
C40          O42   1.275       .  A
C40          O54   1.276       .  A
O41          C69   1.270       .  A
O41         Mg43   2.300       .  S
O42         Mg74   2.288       .  S
Mg43         O49   2.143       .  S
Mg43         O57   2.240       .  S
Mg43         O45   2.305       .  S
C44        C1812   1.491       .  S
C44          O82   1.272       .  A
C44          O50   1.277       .  A
O45          C52   1.274       .  A
H46          C59   1.081       .  S
C47          H72   1.081       .  S
C47          O61   1.236       .  S
C47          O62   1.271       .  A
O48          C71   1.268       .  A
O49         Mg63   2.156       .  S
O50         Mg80   2.322       .  S
C51        C1764   1.490       .  S
C51          O64   1.274       .  A
C51          O56   1.279       .  A
C52        C1935   1.496       .  S
C52          O79   1.278       .  A
Mg53         O60   2.145       .  S
Mg53         O61   2.153       .  S
Mg53         O54   2.309       .  S
Mg53         O55   2.307       .  S
Mg53         O82   2.268       .  S
O55          C59   1.272       .  A
O56         Mg63   2.332       .  S
O57          C76   1.269       .  A
O58          C78   1.278       .  A
O58         Mg74   2.329       .  S
O60         Mg74   2.157       .  S
O60          C71   1.234       .  S
O61         Mg80   2.160       .  S
O62         Mg74   2.304       .  S
Mg63         O79   2.315       .  S
O64         Mg80   2.263       .  S
H65          C70   1.081       .  S
O66         Mg74   2.156       .  S
O66          C69   1.236       .  S
H67          C69   1.081       .  S
H68          C71   1.081       .  S
O73         Mg80   2.297       .  S
C76        C1788   1.483       .  S
C76          O81   1.275       .  A
O77          C78   1.273       .  A
C78        C1839   1.487       .  S
O83         Mg85   2.145       .  S
O83         Mg91   2.152       .  S
O83         C118   1.236       .  S
C84         H123   1.081       .  S
C84          O97   1.236       .  S
C84         O121   1.271       .  A
Mg85        O114   2.167       .  S
Mg85        O129   2.332       .  S
Mg85        O125   2.277       .  S
Mg85         O96   2.303       .  S
O86        Mg128   2.167       .  S
O86        Mg111   2.165       .  S
O86         C107   1.235       .  S
O87         C118   1.271       .  A
O87        Mg111   2.303       .  S
C88        C1695   1.488       .  S
C88          O90   1.274       .  A
C88         O102   1.274       .  A
O89         C117   1.270       .  A
O89         Mg91   2.299       .  S
O90        Mg122   2.297       .  S
Mg91         O97   2.167       .  S
Mg91        O105   2.299       .  S
Mg91         O93   2.288       .  S
C92        C1620   1.493       .  S
C92         O130   1.272       .  A
C92          O98   1.279       .  A
O93         C100   1.274       .  A
H94         C107   1.081       .  S
C95         H120   1.081       .  S
C95         O109   1.236       .  S
C95         O110   1.271       .  A
O96         C119   1.270       .  A
O97        Mg111   2.161       .  S
O98        Mg128   2.335       .  S
C99        C1719   1.487       .  S
C99         O112   1.274       .  A
C99         O104   1.278       .  A
C100       C1671   1.487       .  S
C100        O127   1.277       .  A
Mg101       O108   2.149       .  S
Mg101       O109   2.155       .  S
Mg101       O102   2.293       .  S
Mg101       O103   2.300       .  S
Mg101       O130   2.268       .  S
O103        C107   1.270       .  A
O104       Mg111   2.307       .  S
O105        C124   1.275       .  A
O106        C126   1.275       .  A
O106       Mg122   2.287       .  S
O108       Mg122   2.156       .  S
O108        C119   1.235       .  S
O109       Mg128   2.147       .  S
O110       Mg122   2.302       .  S
Mg111       O127   2.313       .  S
O112       Mg128   2.277       .  S
H113        C118   1.081       .  S
O114       Mg122   2.161       .  S
O114        C117   1.236       .  S
H115        C117   1.081       .  S
H116        C119   1.081       .  S
O121       Mg128   2.306       .  S
C124       C1911   1.501       .  S
C124        O129   1.279       .  A
O125        C126   1.274       .  A
C126       C1644   1.481       .  S
N131        C136   1.354       .  A
N131        C135   1.356       .  A
N131        H163   1.040       .  S
N132        C139   1.351   1_565  A
N132        C140   1.351       .  A
N133        C138   1.352       .  A
N133        C137   1.350       .  A
N133        H164   1.038       .  S
N134        C141   1.350       .  A
N134        C142   1.353   1_545  A
C135        C143   1.386       .  A
C135        C151   1.417       .  A
C136        C152   1.416       .  A
C136        C144   1.387       .  A
C137        C145   1.388       .  A
C137        C154   1.412       .  A
C138        C153   1.410       .  A
C138        C146   1.386       .  A
C139        C151   1.415       .  A
C139        C147   1.387       .  A
C140        C154   1.412       .  A
C140        C148   1.385       .  A
C141        C149   1.388       .  A
C141        C152   1.415       .  A
C142        C150   1.384       .  A
C142        C153   1.410       .  A
C143        C144   1.376       .  A
C143        H155   1.082       .  S
C144        H156   1.082       .  S
C145        C146   1.374       .  A
C145        H157   1.082       .  S
C146        H158   1.082       .  S
C147        C148   1.373   1_545  A
C147        H159   1.082       .  S
C148        H160   1.082       .  S
C149        C150   1.373   1_545  A
C149        H161   1.082       .  S
C150        H162   1.082       .  S
C151       C1572   1.494       .  S
C152       C1836   1.489       .  S
C153       C1548   1.483       .  S
C154       C1599   1.477       .  S
O165       Mg167   2.148       .  S
O165       Mg173   2.153       .  S
O165        C200   1.235       .  S
C166        H205   1.081       .  S
C166        O179   1.235       .  S
C166        O203   1.269       .  A
Mg167       O196   2.151       .  S
Mg167       O211   2.278       .  S
Mg167       O207   2.271       .  S
Mg167       O178   2.298       .  S
O168       Mg210   2.150       .  S
O168       Mg193   2.154       .  S
O168        C189   1.236       .  S
O169        C200   1.269       .  A
O169       Mg193   2.301       .  S
C170       C1503   1.482       .  S
C170        O172   1.272       .  A
C170        O184   1.276       .  A
O171        C199   1.271       .  A
O171       Mg173   2.303       .  S
O172       Mg204   2.259       .  S
Mg173       O179   2.144       .  S
Mg173       O187   2.268       .  S
Mg173       O175   2.311       .  S
C174       C1452   1.487       .  S
C174        O212   1.274       .  A
C174        O180   1.273       .  A
O175        C182   1.277       .  A
H176        C189   1.081       .  S
C177        H202   1.081       .  S
C177        O191   1.234       .  S
C177        O192   1.269       .  A
O178        C201   1.270       .  A
O179       Mg193   2.158       .  S
O180       Mg210   2.284       .  S
C181       C1527   1.488       .  S
C181        O194   1.271       .  A
C181        O186   1.278       .  A
C182       C1479   1.487       .  S
C182        O209   1.275       .  A
Mg183       O190   2.156       .  S
Mg183       O191   2.149       .  S
Mg183       O184   2.299       .  S
Mg183       O185   2.308       .  S
Mg183       O212   2.298       .  S
O185        C189   1.272       .  A
O186       Mg193   2.331       .  S
O187        C206   1.272       .  A
O188        C208   1.276       .  A
O188       Mg204   2.312       .  S
O190       Mg204   2.169       .  S
O190        C201   1.236       .  S
O191       Mg210   2.146       .  S
O192       Mg204   2.299       .  S
Mg193       O209   2.279       .  S
O194       Mg210   2.256       .  S
H195        C200   1.081       .  S
O196       Mg204   2.141       .  S
O196        C199   1.237       .  S
H197        C199   1.081       .  S
H198        C201   1.081       .  S
O203       Mg210   2.294       .  S
C206       C1596   1.478       .  S
C206        O211   1.272       .  A
O207        C208   1.272       .  A
C208       C1428   1.490       .  S
N213        C218   1.356       .  A
N213        C217   1.355       .  A
N213        H245   1.040       .  S
N214        C221   1.354   1_455  A
N214        C222   1.354       .  A
N215        C220   1.355       .  A
N215        C219   1.354       .  A
N215        H246   1.039       .  S
N216        C223   1.354       .  A
N216        C224   1.355   1_655  A
C217        C225   1.387       .  A
C217        C233   1.420       .  A
C218        C234   1.419       .  A
C218        C226   1.386       .  A
C219        C227   1.388       .  A
C219        C236   1.417       .  A
C220        C235   1.418       .  A
C220        C228   1.387       .  A
C221        C233   1.420       .  A
C221        C229   1.387       .  A
C222        C236   1.418       .  A
C222        C230   1.386       .  A
C223        C231   1.387       .  A
C223        C234   1.418       .  A
C224        C232   1.385       .  A
C224        C235   1.417       .  A
C225        C226   1.375       .  A
C225        H237   1.082       .  S
C226        H238   1.082       .  S
C227        C228   1.375       .  A
C227        H239   1.082       .  S
C228        H240   1.082       .  S
C229        C230   1.377   1_655  A
C229        H241   1.082       .  S
C230        H242   1.082       .  S
C231        C232   1.373   1_655  A
C231        H243   1.082       .  S
C232        H244   1.082       .  S
C233       C1524   1.498       .  S
C234       C1380   1.499       .  S
C235       C1404   1.496       .  S
C236       C1356   1.490       .  S
O247       Mg249   2.163       .  S
O247       Mg255   2.159       .  S
O247        C282   1.236       .  S
C248        H287   1.081       .  S
C248        O261   1.234       .  S
C248        O285   1.269       .  A
Mg249       O278   2.158       .  S
Mg249       O293   2.331       .  S
Mg249       O289   2.281       .  S
Mg249       O260   2.300       .  S
O250       Mg292   2.162       .  S
O250       Mg275   2.161       .  S
O250        C271   1.235       .  S
O251        C282   1.270       .  A
O251       Mg275   2.303       .  S
C252       C1239   1.487       .  S
C252        O254   1.275       .  A
C252        O266   1.273       .  A
O253        C281   1.270       .  A
O253       Mg255   2.299       .  S
O254       Mg286   2.284       .  S
Mg255       O261   2.142       .  S
Mg255       O269   2.237       .  S
Mg255       O257   2.317       .  S
C256       C1332   1.486       .  S
C256        O294   1.270       .  A
C256        O262   1.275       .  A
O257        C264   1.276       .  A
H258        C271   1.081       .  S
C259        H284   1.081       .  S
C259        O273   1.236       .  S
C259        O274   1.270       .  A
O260        C283   1.270       .  A
O261       Mg275   2.151       .  S
O262       Mg292   2.320       .  S
C263       C1284   1.481       .  S
C263        O276   1.271       .  A
C263        O268   1.277       .  A
C264       C1407   1.493       .  S
C264        O291   1.276       .  A
Mg265       O272   2.141       .  S
Mg265       O273   2.159       .  S
Mg265       O266   2.291       .  S
Mg265       O267   2.298       .  S
Mg265       O294   2.242       .  S
O267        C271   1.270       .  A
O268       Mg275   2.321       .  S
O269        C288   1.270       .  A
O270        C290   1.277       .  A
O270       Mg286   2.312       .  S
O272       Mg286   2.155       .  S
O272        C283   1.235       .  S
O273       Mg292   2.146       .  S
O274       Mg286   2.299       .  S
Mg275       O291   2.291       .  S
O276       Mg292   2.238       .  S
H277        C282   1.081       .  S
O278       Mg286   2.153       .  S
O278        C281   1.236       .  S
H279        C281   1.081       .  S
H280        C283   1.081       .  S
O285       Mg292   2.298       .  S
C288       C1260   1.485       .  S
C288        O293   1.279       .  A
O289        C290   1.276       .  A
C290       C1311   1.490       .  S
N295        C300   1.354       .  A
N295        C299   1.352       .  A
N295        H327   1.041       .  S
N296        C303   1.351       .  A
N296        C304   1.352   1_565  A
N297        C302   1.353       .  A
N297        C301   1.357       .  A
N297        H328   1.041       .  S
N298        C305   1.354       .  A
N298        C306   1.350   1_565  A
C299        C307   1.388       .  A
C299        C315   1.416       .  A
C300        C316   1.415       .  A
C300        C308   1.386       .  A
C301        C309   1.386       .  A
C301        C318   1.418       .  A
C302        C317   1.417       .  A
C302        C310   1.387       .  A
C303        C315   1.415       .  A
C303        C311   1.387       .  A
C304        C318   1.413       .  A
C304        C312   1.385       .  A
C305        C313   1.385       .  A
C305        C316   1.414       .  A
C306        C314   1.388       .  A
C306        C317   1.415       .  A
C307        C308   1.376       .  A
C307        H319   1.082       .  S
C308        H320   1.082       .  S
C309        C310   1.378       .  A
C309        H321   1.082       .  S
C310        H322   1.082       .  S
C311        C312   1.373   1_565  A
C311        H323   1.082       .  S
C312        H324   1.082       .  S
C313        C314   1.375   1_565  A
C313        H325   1.082       .  S
C314        H326   1.082       .  S
C315       C1335   1.491       .  S
C316       C1212   1.495       .  S
C317       C1716   1.486       .  S
C318       C1188   1.498       .  S
N329        C334   1.357   1_554  A
N329        C333   1.353       .  A
N329        H361   1.041       .  S
N330        C337   1.352       .  A
N330        C338   1.355       .  A
N331        C336   1.352   1_554  A
N331        C335   1.352       .  A
N331        H362   1.040       .  S
N332        C339   1.351       .  A
N332        C340   1.351       .  A
C333        C341   1.387       .  A
C333        C349   1.417       .  A
C334        C350   1.421       .  A
C334        C342   1.388       .  A
C335        C343   1.387       .  A
C335        C352   1.413       .  A
C336        C351   1.411       .  A
C336        C344   1.386       .  A
C337        C349   1.417       .  A
C337        C345   1.387       .  A
C338        C352   1.416       .  A
C338        C346   1.385       .  A
C339        C347   1.387       .  A
C339        C350   1.415       .  A
C340        C348   1.385       .  A
C340        C351   1.411       .  A
C341        C342   1.379   1_554  A
C341        H353   1.082       .  S
C342        H354   1.082       .  S
C343        C344   1.375   1_554  A
C343        H355   1.082       .  S
C344        H356   1.082       .  S
C345        C346   1.375       .  A
C345        H357   1.082       .  S
C346        H358   1.082       .  S
C347        C348   1.373       .  A
C347        H359   1.082       .  S
C348        H360   1.082       .  S
C349       C1164   1.488       .  S
C350       C1308   1.501       .  S
C351       C1140   1.484       .  S
C352       C1815   1.494       .  S
N363        C368   1.353   1_556  A
N363        C367   1.353       .  A
N363        H395   1.038       .  S
N364        C371   1.353       .  A
N364        C372   1.352       .  A
N365        C370   1.354   1_556  A
N365        C369   1.352       .  A
N365        H396   1.040       .  S
N366        C373   1.350       .  A
N366        C374   1.350       .  A
C367        C375   1.387       .  A
C367        C383   1.416       .  A
C368        C384   1.415       .  A
C368        C376   1.387       .  A
C369        C377   1.387       .  A
C369        C386   1.414       .  A
C370        C385   1.412       .  A
C370        C378   1.386       .  A
C371        C383   1.415       .  A
C371        C379   1.386       .  A
C372        C386   1.415       .  A
C372        C380   1.386       .  A
C373        C381   1.387       .  A
C373        C384   1.411       .  A
C374        C382   1.386       .  A
C374        C385   1.409       .  A
C375        C376   1.376   1_556  A
C375        H387   1.082       .  S
C376        H388   1.082       .  S
C377        C378   1.374   1_556  A
C377        H389   1.082       .  S
C378        H390   1.082       .  S
C379        C380   1.373       .  A
C379        H391   1.082       .  S
C380        H392   1.082       .  S
C381        C382   1.372       .  A
C381        H393   1.082       .  S
C382        H394   1.083       .  S
C383       C1692   1.490       .  S
C384       C1095   1.481       .  S
C385       C1500   1.481       .  S
C386       C1116   1.487       .  S
O397       Mg399   2.163       .  S
O397       Mg405   2.154       .  S
O397        C432   1.236       .  S
C398        H437   1.081       .  S
C398        O411   1.235       .  S
C398        O435   1.269       .  A
Mg399       O428   2.165       .  S
Mg399       O443   2.318       .  S
Mg399       O439   2.254       .  S
Mg399       O410   2.293       .  S
O400       Mg442   2.156       .  S
O400       Mg425   2.155       .  S
O400        C421   1.237       .  S
O401        C432   1.271       .  A
O401       Mg425   2.307       .  S
C402       C1383   1.495       .  S
C402        O404   1.277       .  A
C402        O416   1.277       .  A
O403        C431   1.271       .  A
O403       Mg405   2.303       .  S
O404       Mg436   2.303       .  S
Mg405       O411   2.135       .  S
Mg405       O419   2.251       .  S
Mg405       O407   2.314       .  S
C406       C1047   1.479       .  S
C406        O444   1.270       .  A
C406        O412   1.274       .  A
O407        C414   1.277       .  A
H408        C421   1.081       .  S
C409        H434   1.081       .  S
C409        O423   1.235       .  S
C409        O424   1.269       .  A
O410        C433   1.268       .  A
O411       Mg425   2.149       .  S
O412       Mg442   2.292       .  S
C413       C1119   1.483       .  S
C413        O426   1.272       .  A
C413        O418   1.276       .  A
C414       C1020   1.489       .  S
C414        O441   1.274       .  A
Mg415       O422   2.124       .  S
Mg415       O423   2.155       .  S
Mg415       O416   2.314       .  S
Mg415       O417   2.303       .  S
Mg415       O444   2.243       .  S
O417        C421   1.272       .  A
O418       Mg425   2.319       .  S
O419        C438   1.271       .  A
O420        C440   1.276       .  A
O420       Mg436   2.310       .  S
O422       Mg436   2.149       .  S
O422        C433   1.234       .  S
O423       Mg442   2.151       .  S
O424       Mg436   2.298       .  S
Mg425       O441   2.281       .  S
O426       Mg442   2.256       .  S
H427        C432   1.081       .  S
O428       Mg436   2.168       .  S
O428        C431   1.236       .  S
H429        C431   1.081       .  S
H430        C433   1.081       .  S
O435       Mg442   2.296       .  S
C438       C1215   1.488       .  S
C438        O443   1.276       .  A
O439        C440   1.273       .  A
C440       C1068   1.478       .  S
N445        C450   1.357       .  A
N445        C449   1.352       .  A
N445        H477   1.039       .  S
N446        C453   1.352   1_545  A
N446        C454   1.355       .  A
N447        C452   1.352       .  A
N447        C451   1.356       .  A
N447        H478   1.039       .  S
N448        C455   1.351   1_545  A
N448        C456   1.350       .  A
C449        C457   1.387       .  A
C449        C465   1.416       .  A
C450        C466   1.418       .  A
C450        C458   1.386       .  A
C451        C459   1.386       .  A
C451        C468   1.417       .  A
C452        C467   1.416       .  A
C452        C460   1.388       .  A
C453        C465   1.416       .  A
C453        C461   1.387       .  A
C454        C468   1.416       .  A
C454        C462   1.385       .  A
C455        C463   1.386       .  A
C455        C466   1.412       .  A
C456        C464   1.387       .  A
C456        C467   1.411       .  A
C457        C458   1.377       .  A
C457        H469   1.082       .  S
C458        H470   1.082       .  S
C459        C460   1.374       .  A
C459        H471   1.082       .  S
C460        H472   1.082       .  S
C461        C462   1.372   1_565  A
C461        H473   1.082       .  S
C462        H474   1.082       .  S
C463        C464   1.373   1_565  A
C463        H475   1.082       .  S
C464        H476   1.082       .  S
C465       C1071   1.483       .  S
C466       C1476   1.492       .  S
C467        C996   1.481       .  S
C468       C1668   1.499       .  S
O479       Mg481   2.167       .  S
O479       Mg487   2.158       .  S
O479        C514   1.235       .  S
C480        H519   1.081       .  S
C480        O493   1.235       .  S
C480        O517   1.269       .  A
Mg481       O510   2.165       .  S
Mg481       O525   2.320       .  S
Mg481       O521   2.258       .  S
Mg481       O492   2.292       .  S
O482       Mg524   2.162       .  S
O482       Mg507   2.162       .  S
O482        C503   1.237       .  S
O483        C514   1.271       .  A
O483       Mg507   2.308       .  S
C484       C1860   1.496       .  S
C484        O486   1.278       .  A
C484        O498   1.276       .  A
O485        C513   1.270       .  A
O485       Mg487   2.301       .  S
O486       Mg518   2.316       .  S
Mg487       O493   2.133       .  S
Mg487       O501   2.223       .  S
Mg487       O489   2.307       .  S
C488        C999   1.481       .  S
C488        O526   1.268       .  A
C488        O494   1.275       .  A
O489        C496   1.274       .  A
H490        C503   1.081       .  S
C491        H516   1.081       .  S
C491        O505   1.236       .  S
C491        O506   1.271       .  A
O492        C515   1.268       .  A
O493       Mg507   2.149       .  S
O494       Mg524   2.318       .  S
C495       C1575   1.485       .  S
C495        O508   1.273       .  A
C495        O500   1.276       .  A
C496        C951   1.493       .  S
C496        O523   1.275       .  A
Mg497       O504   2.123       .  S
Mg497       O505   2.148       .  S
Mg497       O498   2.310       .  S
Mg497       O499   2.303       .  S
Mg497       O526   2.223       .  S
O499        C503   1.272       .  A
O500       Mg507   2.314       .  S
O501        C520   1.267       .  A
O502        C522   1.278       .  A
O502       Mg518   2.320       .  S
O504       Mg518   2.143       .  S
O504        C515   1.234       .  S
O505       Mg524   2.157       .  S
O506       Mg518   2.302       .  S
Mg507       O523   2.299       .  S
O508       Mg524   2.254       .  S
H509        C514   1.081       .  S
O510       Mg518   2.165       .  S
O510        C513   1.236       .  S
H511        C513   1.081       .  S
H512        C515   1.081       .  S
O517       Mg524   2.298       .  S
C520       C1092   1.480       .  S
C520        O525   1.276       .  A
O521        C522   1.274       .  A
C522        C972   1.482       .  S
N527        C532   1.351   1_655  A
N527        C531   1.353       .  A
N527        H559   1.039       .  S
N528        C535   1.354       .  A
N528        C536   1.351       .  A
N529        C534   1.357       .  A
N529        C533   1.354   1_455  A
N529        H560   1.040   1_455  S
N530        C537   1.352       .  A
N530        C538   1.353       .  A
C531        C539   1.387       .  A
C531        C547   1.413       .  A
C532        C548   1.411       .  A
C532        C540   1.387       .  A
C533        C541   1.387       .  A
C533        C550   1.418       .  A
C534        C549   1.420       .  A
C534        C542   1.387       .  A
C535        C547   1.413       .  A
C535        C543   1.384       .  A
C536        C550   1.416       .  A
C536        C544   1.388       .  A
C537        C545   1.385       .  A
C537        C548   1.413       .  A
C538        C546   1.387       .  A
C538        C549   1.417       .  A
C539        C540   1.374   1_655  A
C539        H551   1.082       .  S
C540        H552   1.082       .  S
C541        C542   1.377   1_655  A
C541        H553   1.082       .  S
C542        H554   1.082       .  S
C543        C544   1.373       .  A
C543        H555   1.082       .  S
C544        H556   1.082       .  S
C545        C546   1.374       .  A
C545        H557   1.082       .  S
C546        H558   1.082       .  S
C547       C1455   1.489       .  S
C548        C924   1.481       .  S
C549       C1767   1.498       .  S
C550        C975   1.490       .  S
O561       Mg563   2.159       .  S
O561       Mg569   2.164       .  S
O561        C596   1.236       .  S
C562        H601   1.081       .  S
C562        O575   1.235       .  S
C562        O599   1.270       .  A
Mg563       O592   2.156       .  S
Mg563       O607   2.288       .  S
Mg563       O603   2.279       .  S
Mg563       O574   2.289       .  S
O564       Mg606   2.150       .  S
O564       Mg589   2.155       .  S
O564        C585   1.237       .  S
O565        C596   1.271       .  A
O565       Mg589   2.304       .  S
C566        C900   1.484       .  S
C566        O568   1.274       .  A
C566        O580   1.274       .  A
O567        C595   1.269       .  A
O567       Mg569   2.294       .  S
O568       Mg600   2.278       .  S
Mg569       O575   2.156       .  S
Mg569       O583   2.285       .  S
Mg569       O571   2.305       .  S
C570       C1551   1.484       .  S
C570        O608   1.270       .  A
C570        O576   1.275       .  A
O571        C578   1.277       .  A
H572        C585   1.081       .  S
C573        H598   1.081       .  S
C573        O587   1.236       .  S
C573        O588   1.270       .  A
O574        C597   1.268       .  A
O575       Mg589   2.158       .  S
O576       Mg606   2.299       .  S
C577        C876   1.488       .  S
C577        O590   1.273       .  A
C577        O582   1.277       .  A
C578       C1167   1.487       .  S
C578        O605   1.273       .  A
Mg579       O586   2.135       .  S
Mg579       O587   2.155       .  S
Mg579       O580   2.286       .  S
Mg579       O581   2.306       .  S
Mg579       O608   2.262       .  S
O581        C585   1.272       .  A
O582       Mg589   2.326       .  S
O583        C602   1.275       .  A
O584        C604   1.278       .  A
O584       Mg600   2.315       .  S
O586       Mg600   2.162       .  S
O586        C597   1.235       .  S
O587       Mg606   2.146       .  S
O588       Mg600   2.298       .  S
Mg589       O605   2.272       .  S
O590       Mg606   2.270       .  S
H591        C596   1.081       .  S
O592       Mg600   2.137       .  S
O592        C595   1.235       .  S
H593        C595   1.081       .  S
H594        C597   1.081       .  S
O599       Mg606   2.304       .  S
C602        C927   1.485       .  S
C602        O607   1.274       .  A
O603        C604   1.275       .  A
C604       C1359   1.490       .  S
N609        C614   1.354       .  A
N609        C613   1.353       .  A
N609        H641   1.037       .  S
N610        C617   1.354       .  A
N610        C618   1.353   1_545  A
N611        C616   1.355       .  A
N611        C615   1.355       .  A
N611        H642   1.034       .  S
N612        C619   1.354       .  A
N612        C620   1.352   1_545  A
C613        C621   1.388       .  A
C613        C629   1.417       .  A
C614        C630   1.414       .  A
C614        C622   1.386       .  A
C615        C623   1.387       .  A
C615        C632   1.419       .  A
C616        C631   1.422       .  A
C616        C624   1.389       .  A
C617        C629   1.416       .  A
C617        C625   1.386       .  A
C618        C632   1.416       .  A
C618        C626   1.387       .  A
C619        C627   1.384       .  A
C619        C630   1.414       .  A
C620        C628   1.389       .  A
C620        C631   1.420       .  A
C621        C622   1.372       .  A
C621        H633   1.082       .  S
C622        H634   1.082       .  S
C623        C624   1.376       .  A
C623        H635   1.082       .  S
C624        H636   1.082       .  S
C625        C626   1.370   1_545  A
C625        H637   1.082       .  S
C626        H638   1.082       .  S
C627        C628   1.371   1_545  A
C627        H639   1.082       .  S
C628        H640   1.082       .  S
C629       C1791   1.489       .  S
C630        C852   1.487       .  S
C631       C1287   1.489       .  S
C632        C903   1.487       .  S
O643       Mg645   2.143       .  S
O643       Mg651   2.153       .  S
O643        C678   1.236       .  S
C644        H683   1.081       .  S
C644        O657   1.234       .  S
C644        O681   1.270       .  A
Mg645       O674   2.160       .  S
Mg645       O689   2.353       .  S
Mg645       O685   2.274       .  S
Mg645       O656   2.308       .  S
O646       Mg688   2.168       .  S
O646       Mg671   2.159       .  S
O646        C667   1.235       .  S
O647        C678   1.270       .  A
O647       Mg671   2.298       .  S
C648        C855   1.488       .  S
C648        O650   1.275       .  A
C648        O662   1.272       .  A
O649        C677   1.269       .  A
O649       Mg651   2.294       .  S
O650       Mg682   2.293       .  S
Mg651       O657   2.171       .  S
Mg651       O665   2.284       .  S
Mg651       O653   2.279       .  S
C652       C1887   1.497       .  S
C652        O690   1.272       .  A
C652        O658   1.280       .  A
O653        C660   1.272       .  A
H654        C667   1.081       .  S
C655        H680   1.081       .  S
C655        O669   1.238       .  S
C655        O670   1.274       .  A
O656        C679   1.271       .  A
O657       Mg671   2.163       .  S
O658       Mg688   2.347       .  S
C659        C831   1.489       .  S
C659        O672   1.276       .  A
C659        O664   1.278       .  A
C660       C1143   1.479       .  S
C660        O687   1.274       .  A
Mg661       O668   2.168       .  S
Mg661       O669   2.161       .  S
Mg661       O662   2.285       .  S
Mg661       O663   2.297       .  S
Mg661       O690   2.272       .  S
O663        C667   1.269       .  A
O664       Mg671   2.310       .  S
O665        C684   1.275       .  A
O666        C686   1.282       .  A
O666       Mg682   2.344       .  S
O668       Mg682   2.157       .  S
O668        C679   1.236       .  S
O669       Mg688   2.159       .  S
O670       Mg682   2.314       .  S
Mg671       O687   2.285       .  S
O672       Mg688   2.283       .  S
H673        C678   1.081       .  S
O674       Mg682   2.152       .  S
O674        C677   1.235       .  S
H675        C677   1.081       .  S
H676        C679   1.081       .  S
O681       Mg688   2.305       .  S
C684        C807   1.501       .  S
C684        O689   1.281       .  A
O685        C686   1.275       .  A
C686       C1191   1.493       .  S
N691        C696   1.355   1_655  A
N691        C695   1.355       .  A
N691        H723   1.040       .  S
N692        C699   1.351       .  A
N692        C700   1.353       .  A
N693        C698   1.352   1_655  A
N693        C697   1.350       .  A
N693        H724   1.040       .  S
N694        C701   1.350       .  A
N694        C702   1.352       .  A
C695        C703   1.388       .  A
C695        C711   1.419       .  A
C696        C712   1.416       .  A
C696        C704   1.386       .  A
C697        C705   1.387       .  A
C697        C714   1.410       .  A
C698        C713   1.411       .  A
C698        C706   1.387       .  A
C699        C711   1.416       .  A
C699        C707   1.388       .  A
C700        C714   1.411       .  A
C700        C708   1.385       .  A
C701        C709   1.386       .  A
C701        C712   1.411       .  A
C702        C710   1.386       .  A
C702        C713   1.413       .  A
C703        C704   1.375   1_655  A
C703        H715   1.082       .  S
C704        H716   1.082       .  S
C705        C706   1.373   1_655  A
C705        H717   1.083       .  S
C706        H718   1.082       .  S
C707        C708   1.374       .  A
C707        H719   1.082       .  S
C708        H720   1.082       .  S
C709        C710   1.375       .  A
C709        H721   1.082       .  S
C710        H722   1.082       .  S
C711       C1647   1.493       .  S
C712        C828   1.485       .  S
C713       C1263   1.486       .  S
C714       C1044   1.485       .  S
N725        C730   1.354       .  A
N725        C729   1.356       .  A
N725        H757   1.038       .  S
N726        C733   1.355       .  A
N726        C734   1.354   1_554  A
N727        C732   1.356       .  A
N727        C731   1.354       .  A
N727        H758   1.037       .  S
N728        C735   1.355   1_556  A
N728        C736   1.356       .  A
C729        C737   1.386       .  A
C729        C745   1.417       .  A
C730        C746   1.420       .  A
C730        C738   1.388       .  A
C731        C739   1.388       .  A
C731        C748   1.419       .  A
C732        C747   1.419       .  A
C732        C740   1.386       .  A
C733        C745   1.417       .  A
C733        C741   1.386       .  A
C734        C748   1.418       .  A
C734        C742   1.387       .  A
C735        C743   1.387       .  A
C735        C746   1.421       .  A
C736        C744   1.385       .  A
C736        C747   1.419       .  A
C737        C738   1.375       .  A
C737        H749   1.082       .  S
C738        H750   1.082       .  S
C739        C740   1.377       .  A
C739        H751   1.082       .  S
C740        H752   1.082       .  S
C741        C742   1.376   1_554  A
C741        H753   1.082       .  S
C742        H754   1.082       .  S
C743        C744   1.376   1_554  A
C743        H755   1.082       .  S
C744        H756   1.082       .  S
C745        C948   1.496       .  S
C746       C1743   1.495       .  S
C747        C804   1.499       .  S
C748       C1623   1.490       .  S
N759        C764   1.356   1_556  A
N759        C763   1.354       .  A
N759        H791   1.040       .  S
N760        C767   1.353       .  A
N760        C768   1.354       .  A
N761        C766   1.353   1_556  A
N761        C765   1.352       .  A
N761        H792   1.039       .  S
N762        C769   1.352       .  A
N762        C770   1.351       .  A
C763        C771   1.388       .  A
C763        C779   1.418       .  A
C764        C780   1.417       .  A
C764        C772   1.386       .  A
C765        C773   1.387       .  A
C765        C782   1.414       .  A
C766        C781   1.414       .  A
C766        C774   1.387       .  A
C767        C779   1.417       .  A
C767        C775   1.387       .  A
C768        C782   1.415       .  A
C768        C776   1.385       .  A
C769        C777   1.387       .  A
C769        C780   1.415       .  A
C770        C778   1.385       .  A
C770        C781   1.412       .  A
C771        C772   1.376   1_556  A
C771        H783   1.082       .  S
C772        H784   1.082       .  S
C773        C774   1.376   1_556  A
C773        H785   1.082       .  S
C774        H786   1.082       .  S
C775        C776   1.376       .  A
C775        H787   1.082       .  S
C776        H788   1.082       .  S
C777        C778   1.375       .  A
C777        H789   1.082       .  S
C778        H790   1.082       .  S
C779       C1236   1.495       .  S
C780        C879   1.496       .  S
C781       C1431   1.485       .  S
C782       C1023   1.489       .  S
C793        C794   1.402       .  A
C793        C798   1.405       .  A
C793        H809   1.084       .  S
C794        C795   1.404       .  A
C794        H810   1.083       .  S
C795        C805   1.410       .  A
C795        C796   1.413       .  A
C796        C802   1.412       .  A
C796        C797   1.419       .  A
C797        C799   1.412       .  A
C797        C798   1.410       .  A
C798        C806   1.409       .  A
C799        C808   1.412       .  A
C799        C800   1.405       .  A
C800        C801   1.403       .  A
C800        H811   1.083       .  S
C801        C802   1.405       .  A
C801        H812   1.083       .  S
C802        C803   1.409       .  A
C803        C804   1.408       .  A
C803        H813   1.084       .  S
C804        C805   1.407       .  A
C805        H814   1.084       .  S
C806        C807   1.413       .  A
C806        H815   1.084       .  S
C807        C808   1.412       .  A
C808        H816   1.084       .  S
C817        C818   1.401       .  A
C817        C822   1.404       .  A
C817        H833   1.083       .  S
C818        C819   1.404       .  A
C818        H834   1.083       .  S
C819        C829   1.406       .  A
C819        C820   1.413       .  A
C820        C826   1.412       .  A
C820        C821   1.414       .  A
C821        C823   1.411       .  A
C821        C822   1.411       .  A
C822        C830   1.406       .  A
C823        C832   1.404       .  A
C823        C824   1.404       .  A
C824        C825   1.399       .  A
C824        H835   1.084       .  S
C825        C826   1.403       .  A
C825        H836   1.084       .  S
C826        C827   1.402       .  A
C827        C828   1.404       .  A
C827        H837   1.084       .  S
C828        C829   1.404       .  A
C829        H838   1.084       .  S
C830        C831   1.409       .  A
C830        H839   1.084       .  S
C831        C832   1.410       .  A
C832        H840   1.084       .  S
C841        C842   1.399       .  A
C841        C846   1.403       .  A
C841        H857   1.083       .  S
C842        C843   1.403       .  A
C842        H858   1.083       .  S
C843        C853   1.404       .  A
C843        C844   1.412       .  A
C844        C850   1.413       .  A
C844        C845   1.413       .  A
C845        C847   1.410       .  A
C845        C846   1.412       .  A
C846        C854   1.405       .  A
C847        C856   1.404       .  A
C847        C848   1.405       .  A
C848        C849   1.400       .  A
C848        H859   1.084       .  S
C849        C850   1.404       .  A
C849        H860   1.084       .  S
C850        C851   1.404       .  A
C851        C852   1.405       .  A
C851        H861   1.084       .  S
C852        C853   1.404       .  A
C853        H862   1.084       .  S
C854        C855   1.407       .  A
C854        H863   1.084       .  S
C855        C856   1.412       .  A
C856        H864   1.084       .  S
C865        C866   1.402       .  A
C865        C870   1.405       .  A
C865        H881   1.083       .  S
C866        C867   1.405       .  A
C866        H882   1.084       .  S
C867        C877   1.409       .  A
C867        C868   1.412       .  A
C868        C874   1.411       .  A
C868        C869   1.415       .  A
C869        C871   1.412       .  A
C869        C870   1.412       .  A
C870        C878   1.408       .  A
C871        C880   1.403       .  A
C871        C872   1.403       .  A
C872        C873   1.399       .  A
C872        H883   1.084       .  S
C873        C874   1.404       .  A
C873        H884   1.084       .  S
C874        C875   1.403       .  A
C875        C876   1.408       .  A
C875        H885   1.084       .  S
C876        C877   1.410       .  A
C877        H886   1.084       .  S
C878        C879   1.409       .  A
C878        H887   1.084       .  S
C879        C880   1.406       .  A
C880        H888   1.084       .  S
C889        C890   1.398       .  A
C889        C894   1.403       .  A
C889        H905   1.084       .  S
C890        C891   1.404       .  A
C890        H906   1.084       .  S
C891        C901   1.400       .  A
C891        C892   1.410       .  A
C892        C898   1.412       .  A
C892        C893   1.412       .  A
C893        C895   1.412       .  A
C893        C894   1.412       .  A
C894        C902   1.402       .  A
C895        C904   1.404       .  A
C895        C896   1.404       .  A
C896        C897   1.400       .  A
C896        H907   1.083       .  S
C897        C898   1.404       .  A
C897        H908   1.084       .  S
C898        C899   1.405       .  A
C899        C900   1.408       .  A
C899        H909   1.084       .  S
C900        C901   1.409       .  A
C901        H910   1.084       .  S
C902        C903   1.404       .  A
C902        H911   1.084       .  S
C903        C904   1.404       .  A
C904        H912   1.084       .  S
C913        C914   1.398       .  A
C913        C918   1.404       .  A
C913        H929   1.084       .  S
C914        C915   1.403       .  A
C914        H930   1.084       .  S
C915        C925   1.402       .  A
C915        C916   1.413       .  A
C916        C922   1.412       .  A
C916        C917   1.412       .  A
C917        C919   1.412       .  A
C917        C918   1.410       .  A
C918        C926   1.401       .  A
C919        C928   1.405       .  A
C919        C920   1.404       .  A
C920        C921   1.400       .  A
C920        H931   1.084       .  S
C921        C922   1.403       .  A
C921        H932   1.083       .  S
C922        C923   1.404       .  A
C923        C924   1.403       .  A
C923        H933   1.084       .  S
C924        C925   1.402       .  A
C925        H934   1.084       .  S
C926        C927   1.410       .  A
C926        H935   1.084       .  S
C927        C928   1.408       .  A
C928        H936   1.084       .  S
C937        C938   1.402       .  A
C937        C942   1.405       .  A
C937        H953   1.084       .  S
C938        C939   1.404       .  A
C938        H954   1.083       .  S
C939        C949   1.409       .  A
C939        C940   1.413       .  A
C940        C946   1.411       .  A
C940        C941   1.417       .  A
C941        C943   1.413       .  A
C941        C942   1.410       .  A
C942        C950   1.407       .  A
C943        C952   1.409       .  A
C943        C944   1.404       .  A
C944        C945   1.401       .  A
C944        H955   1.084       .  S
C945        C946   1.404       .  A
C945        H956   1.083       .  S
C946        C947   1.406       .  A
C947        C948   1.407       .  A
C947        H957   1.084       .  S
C948        C949   1.407       .  A
C949        H958   1.084       .  S
C950        C951   1.412       .  A
C950        H959   1.084       .  S
C951        C952   1.409       .  A
C952        H960   1.084       .  S
C961        C962   1.401       .  A
C961        C966   1.404       .  A
C961        H977   1.083       .  S
C962        C963   1.404       .  A
C962        H978   1.084       .  S
C963        C973   1.406       .  A
C963        C964   1.412       .  A
C964        C970   1.411       .  A
C964        C965   1.412       .  A
C965        C967   1.412       .  A
C965        C966   1.412       .  A
C966        C974   1.405       .  A
C967        C976   1.401       .  A
C967        C968   1.403       .  A
C968        C969   1.398       .  A
C968        H979   1.084       .  S
C969        C970   1.403       .  A
C969        H980   1.084       .  S
C970        C971   1.400       .  A
C971        C972   1.408       .  A
C971        H981   1.084       .  S
C972        C973   1.408       .  A
C973        H982   1.084       .  S
C974        C975   1.406       .  A
C974        H983   1.084       .  S
C975        C976   1.405       .  A
C976        H984   1.085       .  S
C985        C986   1.395       .  A
C985        C990   1.403       .  A
C985       H1001   1.084       .  S
C986        C987   1.401       .  A
C986       H1002   1.084       .  S
C987        C997   1.397       .  A
C987        C988   1.413       .  A
C988        C994   1.412       .  A
C988        C989   1.410       .  A
C989        C991   1.413       .  A
C989        C990   1.409       .  A
C990        C998   1.395       .  A
C991       C1000   1.407       .  A
C991        C992   1.405       .  A
C992        C993   1.401       .  A
C992       H1003   1.084       .  S
C993        C994   1.404       .  A
C993       H1004   1.084       .  S
C994        C995   1.404       .  A
C995        C996   1.406       .  A
C995       H1005   1.084       .  S
C996        C997   1.401       .  A
C997       H1006   1.085       .  S
C998        C999   1.407       .  A
C998       H1007   1.084       .  S
C999       C1000   1.409       .  A
C1000      H1008   1.084       .  S
C1009      C1010   1.400       .  A
C1009      C1014   1.404       .  A
C1009      H1025   1.084       .  S
C1010      C1011   1.404       .  A
C1010      H1026   1.084       .  S
C1011      C1021   1.406       .  A
C1011      C1012   1.412       .  A
C1012      C1018   1.411       .  A
C1012      C1013   1.414       .  A
C1013      C1015   1.413       .  A
C1013      C1014   1.411       .  A
C1014      C1022   1.404       .  A
C1015      C1024   1.406       .  A
C1015      C1016   1.403       .  A
C1016      C1017   1.400       .  A
C1016      H1027   1.083       .  S
C1017      C1018   1.404       .  A
C1017      H1028   1.084       .  S
C1018      C1019   1.405       .  A
C1019      C1020   1.410       .  A
C1019      H1029   1.084       .  S
C1020      C1021   1.409       .  A
C1021      H1030   1.084       .  S
C1022      C1023   1.406       .  A
C1022      H1031   1.084       .  S
C1023      C1024   1.405       .  A
C1024      H1032   1.084       .  S
C1033      C1034   1.399       .  A
C1033      C1038   1.404       .  A
C1033      H1049   1.084       .  S
C1034      C1035   1.403       .  A
C1034      H1050   1.083       .  S
C1035      C1045   1.404       .  A
C1035      C1036   1.413       .  A
C1036      C1042   1.411       .  A
C1036      C1037   1.410       .  A
C1037      C1039   1.412       .  A
C1037      C1038   1.410       .  A
C1038      C1046   1.401       .  A
C1039      C1048   1.400       .  A
C1039      C1040   1.403       .  A
C1040      C1041   1.397       .  A
C1040      H1051   1.084       .  S
C1041      C1042   1.403       .  A
C1041      H1052   1.084       .  S
C1042      C1043   1.398       .  A
C1043      C1044   1.404       .  A
C1043      H1053   1.085       .  S
C1044      C1045   1.404       .  A
C1045      H1054   1.084       .  S
C1046      C1047   1.408       .  A
C1046      H1055   1.084       .  S
C1047      C1048   1.407       .  A
C1048      H1056   1.084       .  S
C1057      C1058   1.397       .  A
C1057      C1062   1.402       .  A
C1057      H1073   1.084       .  S
C1058      C1059   1.403       .  A
C1058      H1074   1.084       .  S
C1059      C1069   1.399       .  A
C1059      C1060   1.411       .  A
C1060      C1066   1.412       .  A
C1060      C1061   1.411       .  A
C1061      C1063   1.412       .  A
C1061      C1062   1.412       .  A
C1062      C1070   1.400       .  A
C1063      C1072   1.404       .  A
C1063      C1064   1.404       .  A
C1064      C1065   1.401       .  A
C1064      H1075   1.084       .  S
C1065      C1066   1.404       .  A
C1065      H1076   1.084       .  S
C1066      C1067   1.406       .  A
C1067      C1068   1.407       .  A
C1067      H1077   1.084       .  S
C1068      C1069   1.406       .  A
C1069      H1078   1.085       .  S
C1070      C1071   1.403       .  A
C1070      H1079   1.085       .  S
C1071      C1072   1.405       .  A
C1072      H1080   1.084       .  S
C1081      C1082   1.400       .  A
C1081      C1086   1.404       .  A
C1081      H1097   1.083       .  S
C1082      C1083   1.404       .  A
C1082      H1098   1.084       .  S
C1083      C1093   1.406       .  A
C1083      C1084   1.413       .  A
C1084      C1090   1.409       .  A
C1084      C1085   1.410       .  A
C1085      C1087   1.413       .  A
C1085      C1086   1.412       .  A
C1086      C1094   1.403       .  A
C1087      C1096   1.399       .  A
C1087      C1088   1.402       .  A
C1088      C1089   1.396       .  A
C1088      H1099   1.084       .  S
C1089      C1090   1.403       .  A
C1089      H1100   1.084       .  S
C1090      C1091   1.397       .  A
C1091      C1092   1.409       .  A
C1091      H1101   1.084       .  S
C1092      C1093   1.407       .  A
C1093      H1102   1.084       .  S
C1094      C1095   1.405       .  A
C1094      H1103   1.084       .  S
C1095      C1096   1.401       .  A
C1096      H1104   1.085       .  S
C1105      C1106   1.396       .  A
C1105      C1110   1.403       .  A
C1105      H1121   1.084       .  S
C1106      C1107   1.402       .  A
C1106      H1122   1.084       .  S
C1107      C1117   1.399       .  A
C1107      C1108   1.412       .  A
C1108      C1114   1.412       .  A
C1108      C1109   1.412       .  A
C1109      C1111   1.412       .  A
C1109      C1110   1.411       .  A
C1110      C1118   1.399       .  A
C1111      C1120   1.407       .  A
C1111      C1112   1.405       .  A
C1112      C1113   1.402       .  A
C1112      H1123   1.084       .  S
C1113      C1114   1.404       .  A
C1113      H1124   1.084       .  S
C1114      C1115   1.405       .  A
C1115      C1116   1.407       .  A
C1115      H1125   1.084       .  S
C1116      C1117   1.403       .  A
C1117      H1126   1.085       .  S
C1118      C1119   1.407       .  A
C1118      H1127   1.084       .  S
C1119      C1120   1.409       .  A
C1120      H1128   1.084       .  S
C1129      C1130   1.399       .  A
C1129      C1134   1.404       .  A
C1129      H1145   1.084       .  S
C1130      C1131   1.403       .  A
C1130      H1146   1.084       .  S
C1131      C1141   1.402       .  A
C1131      C1132   1.412       .  A
C1132      C1138   1.412       .  A
C1132      C1133   1.412       .  A
C1133      C1135   1.412       .  A
C1133      C1134   1.411       .  A
C1134      C1142   1.402       .  A
C1135      C1144   1.404       .  A
C1135      C1136   1.403       .  A
C1136      C1137   1.399       .  A
C1136      H1147   1.084       .  S
C1137      C1138   1.403       .  A
C1137      H1148   1.084       .  S
C1138      C1139   1.402       .  A
C1139      C1140   1.404       .  A
C1139      H1149   1.084       .  S
C1140      C1141   1.404       .  A
C1141      H1150   1.084       .  S
C1142      C1143   1.408       .  A
C1142      H1151   1.084       .  S
C1143      C1144   1.406       .  A
C1144      H1152   1.084       .  S
C1153      C1154   1.397       .  A
C1153      C1158   1.403       .  A
C1153      H1169   1.084       .  S
C1154      C1155   1.402       .  A
C1154      H1170   1.084       .  S
C1155      C1165   1.401       .  A
C1155      C1156   1.412       .  A
C1156      C1162   1.412       .  A
C1156      C1157   1.413       .  A
C1157      C1159   1.412       .  A
C1157      C1158   1.411       .  A
C1158      C1166   1.400       .  A
C1159      C1168   1.408       .  A
C1159      C1160   1.405       .  A
C1160      C1161   1.402       .  A
C1160      H1171   1.084       .  S
C1161      C1162   1.405       .  A
C1161      H1172   1.084       .  S
C1162      C1163   1.407       .  A
C1163      C1164   1.407       .  A
C1163      H1173   1.084       .  S
C1164      C1165   1.403       .  A
C1165      H1174   1.084       .  S
C1166      C1167   1.408       .  A
C1166      H1175   1.084       .  S
C1167      C1168   1.411       .  A
C1168      H1176   1.084       .  S
C1177      C1178   1.400       .  A
C1177      C1182   1.404       .  A
C1177      H1193   1.084       .  S
C1178      C1179   1.404       .  A
C1178      H1194   1.083       .  S
C1179      C1189   1.405       .  A
C1179      C1180   1.411       .  A
C1180      C1186   1.413       .  A
C1180      C1181   1.416       .  A
C1181      C1183   1.411       .  A
C1181      C1182   1.412       .  A
C1182      C1190   1.406       .  A
C1183      C1192   1.408       .  A
C1183      C1184   1.405       .  A
C1184      C1185   1.402       .  A
C1184      H1195   1.084       .  S
C1185      C1186   1.404       .  A
C1185      H1196   1.083       .  S
C1186      C1187   1.409       .  A
C1187      C1188   1.408       .  A
C1187      H1197   1.084       .  S
C1188      C1189   1.408       .  A
C1189      H1198   1.084       .  S
C1190      C1191   1.409       .  A
C1190      H1199   1.084       .  S
C1191      C1192   1.412       .  A
C1192      H1200   1.084       .  S
C1201      C1202   1.403       .  A
C1201      C1206   1.405       .  A
C1201      H1217   1.084       .  S
C1202      C1203   1.405       .  A
C1202      H1218   1.083       .  S
C1203      C1213   1.410       .  A
C1203      C1204   1.412       .  A
C1204      C1210   1.411       .  A
C1204      C1205   1.414       .  A
C1205      C1207   1.411       .  A
C1205      C1206   1.412       .  A
C1206      C1214   1.409       .  A
C1207      C1216   1.400       .  A
C1207      C1208   1.403       .  A
C1208      C1209   1.397       .  A
C1208      H1219   1.084       .  S
C1209      C1210   1.402       .  A
C1209      H1220   1.084       .  S
C1210      C1211   1.401       .  A
C1211      C1212   1.405       .  A
C1211      H1221   1.085       .  S
C1212      C1213   1.409       .  A
C1213      H1222   1.084       .  S
C1214      C1215   1.411       .  A
C1214      H1223   1.084       .  S
C1215      C1216   1.408       .  A
C1216      H1224   1.084       .  S
C1225      C1226   1.397       .  A
C1225      C1230   1.403       .  A
C1225      H1241   1.084       .  S
C1226      C1227   1.403       .  A
C1226      H1242   1.084       .  S
C1227      C1237   1.400       .  A
C1227      C1228   1.410       .  A
C1228      C1234   1.413       .  A
C1228      C1229   1.413       .  A
C1229      C1231   1.410       .  A
C1229      C1230   1.412       .  A
C1230      C1238   1.403       .  A
C1231      C1240   1.406       .  A
C1231      C1232   1.405       .  A
C1232      C1233   1.402       .  A
C1232      H1243   1.084       .  S
C1233      C1234   1.404       .  A
C1233      H1244   1.084       .  S
C1234      C1235   1.408       .  A
C1235      C1236   1.408       .  A
C1235      H1245   1.084       .  S
C1236      C1237   1.406       .  A
C1237      H1246   1.085       .  S
C1238      C1239   1.406       .  A
C1238      H1247   1.084       .  S
C1239      C1240   1.412       .  A
C1240      H1248   1.084       .  S
C1249      C1250   1.398       .  A
C1249      C1254   1.403       .  A
C1249      H1265   1.084       .  S
C1250      C1251   1.404       .  A
C1250      H1266   1.084       .  S
C1251      C1261   1.399       .  A
C1251      C1252   1.410       .  A
C1252      C1258   1.413       .  A
C1252      C1253   1.412       .  A
C1253      C1255   1.412       .  A
C1253      C1254   1.412       .  A
C1254      C1262   1.401       .  A
C1255      C1264   1.403       .  A
C1255      C1256   1.403       .  A
C1256      C1257   1.400       .  A
C1256      H1267   1.083       .  S
C1257      C1258   1.404       .  A
C1257      H1268   1.083       .  S
C1258      C1259   1.406       .  A
C1259      C1260   1.408       .  A
C1259      H1269   1.084       .  S
C1260      C1261   1.410       .  A
C1261      H1270   1.084       .  S
C1262      C1263   1.405       .  A
C1262      H1271   1.085       .  S
C1263      C1264   1.405       .  A
C1264      H1272   1.084       .  S
C1273      C1274   1.401       .  A
C1273      C1278   1.404       .  A
C1273      H1289   1.083       .  S
C1274      C1275   1.404       .  A
C1274      H1290   1.084       .  S
C1275      C1285   1.406       .  A
C1275      C1276   1.412       .  A
C1276      C1282   1.410       .  A
C1276      C1277   1.411       .  A
C1277      C1279   1.412       .  A
C1277      C1278   1.412       .  A
C1278      C1286   1.405       .  A
C1279      C1288   1.400       .  A
C1279      C1280   1.402       .  A
C1280      C1281   1.397       .  A
C1280      H1291   1.084       .  S
C1281      C1282   1.403       .  A
C1281      H1292   1.084       .  S
C1282      C1283   1.399       .  A
C1283      C1284   1.408       .  A
C1283      H1293   1.084       .  S
C1284      C1285   1.407       .  A
C1285      H1294   1.084       .  S
C1286      C1287   1.406       .  A
C1286      H1295   1.084       .  S
C1287      C1288   1.405       .  A
C1288      H1296   1.085       .  S
C1297      C1298   1.402       .  A
C1297      C1302   1.405       .  A
C1297      H1313   1.084       .  S
C1298      C1299   1.405       .  A
C1298      H1314   1.083       .  S
C1299      C1309   1.409       .  A
C1299      C1300   1.412       .  A
C1300      C1306   1.410       .  A
C1300      C1301   1.414       .  A
C1301      C1303   1.412       .  A
C1301      C1302   1.410       .  A
C1302      C1310   1.407       .  A
C1303      C1312   1.403       .  A
C1303      C1304   1.403       .  A
C1304      C1305   1.398       .  A
C1304      H1315   1.084       .  S
C1305      C1306   1.403       .  A
C1305      H1316   1.084       .  S
C1306      C1307   1.401       .  A
C1307      C1308   1.409       .  A
C1307      H1317   1.084       .  S
C1308      C1309   1.409       .  A
C1309      H1318   1.084       .  S
C1310      C1311   1.412       .  A
C1310      H1319   1.084       .  S
C1311      C1312   1.408       .  A
C1312      H1320   1.084       .  S
C1321      C1322   1.397       .  A
C1321      C1326   1.402       .  A
C1321      H1337   1.084       .  S
C1322      C1323   1.403       .  A
C1322      H1338   1.084       .  S
C1323      C1333   1.399       .  A
C1323      C1324   1.410       .  A
C1324      C1330   1.412       .  A
C1324      C1325   1.412       .  A
C1325      C1327   1.411       .  A
C1325      C1326   1.412       .  A
C1326      C1334   1.400       .  A
C1327      C1336   1.404       .  A
C1327      C1328   1.404       .  A
C1328      C1329   1.401       .  A
C1328      H1339   1.084       .  S
C1329      C1330   1.405       .  A
C1329      H1340   1.084       .  S
C1330      C1331   1.407       .  A
C1331      C1332   1.410       .  A
C1331      H1341   1.084       .  S
C1332      C1333   1.408       .  A
C1333      H1342   1.084       .  S
C1334      C1335   1.405       .  A
C1334      H1343   1.085       .  S
C1335      C1336   1.408       .  A
C1336      H1344   1.084       .  S
C1345      C1346   1.401       .  A
C1345      C1350   1.404       .  A
C1345      H1361   1.084       .  S
C1346      C1347   1.404       .  A
C1346      H1362   1.083       .  S
C1347      C1357   1.406       .  A
C1347      C1348   1.413       .  A
C1348      C1354   1.412       .  A
C1348      C1349   1.415       .  A
C1349      C1351   1.411       .  A
C1349      C1350   1.411       .  A
C1350      C1358   1.406       .  A
C1351      C1360   1.406       .  A
C1351      C1352   1.404       .  A
C1352      C1353   1.400       .  A
C1352      H1363   1.084       .  S
C1353      C1354   1.404       .  A
C1353      H1364   1.083       .  S
C1354      C1355   1.406       .  A
C1355      C1356   1.405       .  A
C1355      H1365   1.084       .  S
C1356      C1357   1.405       .  A
C1357      H1366   1.084       .  S
C1358      C1359   1.410       .  A
C1358      H1367   1.084       .  S
C1359      C1360   1.410       .  A
C1360      H1368   1.084       .  S
C1369      C1370   1.401       .  A
C1369      C1374   1.404       .  A
C1369      H1385   1.083       .  S
C1370      C1371   1.404       .  A
C1370      H1386   1.084       .  S
C1371      C1381   1.406       .  A
C1371      C1372   1.411       .  A
C1372      C1378   1.412       .  A
C1372      C1373   1.416       .  A
C1373      C1375   1.410       .  A
C1373      C1374   1.412       .  A
C1374      C1382   1.409       .  A
C1375      C1384   1.407       .  A
C1375      C1376   1.405       .  A
C1376      C1377   1.401       .  A
C1376      H1387   1.084       .  S
C1377      C1378   1.404       .  A
C1377      H1388   1.084       .  S
C1378      C1379   1.407       .  A
C1379      C1380   1.408       .  A
C1379      H1389   1.084       .  S
C1380      C1381   1.408       .  A
C1381      H1390   1.084       .  S
C1382      C1383   1.410       .  A
C1382      H1391   1.084       .  S
C1383      C1384   1.412       .  A
C1384      H1392   1.084       .  S
C1393      C1394   1.399       .  A
C1393      C1398   1.404       .  A
C1393      H1409   1.084       .  S
C1394      C1395   1.403       .  A
C1394      H1410   1.084       .  S
C1395      C1405   1.403       .  A
C1395      C1396   1.411       .  A
C1396      C1402   1.413       .  A
C1396      C1397   1.416       .  A
C1397      C1399   1.411       .  A
C1397      C1398   1.412       .  A
C1398      C1406   1.405       .  A
C1399      C1408   1.409       .  A
C1399      C1400   1.406       .  A
C1400      C1401   1.403       .  A
C1400      H1411   1.084       .  S
C1401      C1402   1.405       .  A
C1401      H1412   1.083       .  S
C1402      C1403   1.409       .  A
C1403      C1404   1.408       .  A
C1403      H1413   1.084       .  S
C1404      C1405   1.406       .  A
C1405      H1414   1.084       .  S
C1406      C1407   1.409       .  A
C1406      H1415   1.084       .  S
C1407      C1408   1.412       .  A
C1408      H1416   1.084       .  S
C1417      C1418   1.398       .  A
C1417      C1422   1.403       .  A
C1417      H1433   1.084       .  S
C1418      C1419   1.404       .  A
C1418      H1434   1.084       .  S
C1419      C1429   1.403       .  A
C1419      C1420   1.411       .  A
C1420      C1426   1.411       .  A
C1420      C1421   1.414       .  A
C1421      C1423   1.413       .  A
C1421      C1422   1.412       .  A
C1422      C1430   1.402       .  A
C1423      C1432   1.407       .  A
C1423      C1424   1.404       .  A
C1424      C1425   1.401       .  A
C1424      H1435   1.084       .  S
C1425      C1426   1.405       .  A
C1425      H1436   1.084       .  S
C1426      C1427   1.407       .  A
C1427      C1428   1.411       .  A
C1427      H1437   1.084       .  S
C1428      C1429   1.409       .  A
C1429      H1438   1.084       .  S
C1430      C1431   1.402       .  A
C1430      H1439   1.084       .  S
C1431      C1432   1.405       .  A
C1432      H1440   1.084       .  S
C1441      C1442   1.402       .  A
C1441      C1446   1.404       .  A
C1441      H1457   1.083       .  S
C1442      C1443   1.405       .  A
C1442      H1458   1.084       .  S
C1443      C1453   1.409       .  A
C1443      C1444   1.413       .  A
C1444      C1450   1.410       .  A
C1444      C1445   1.414       .  A
C1445      C1447   1.413       .  A
C1445      C1446   1.412       .  A
C1446      C1454   1.406       .  A
C1447      C1456   1.403       .  A
C1447      C1448   1.403       .  A
C1448      C1449   1.398       .  A
C1448      H1459   1.084       .  S
C1449      C1450   1.404       .  A
C1449      H1460   1.084       .  S
C1450      C1451   1.401       .  A
C1451      C1452   1.410       .  A
C1451      H1461   1.084       .  S
C1452      C1453   1.409       .  A
C1453      H1462   1.084       .  S
C1454      C1455   1.406       .  A
C1454      H1463   1.084       .  S
C1455      C1456   1.404       .  A
C1456      H1464   1.084       .  S
C1465      C1466   1.400       .  A
C1465      C1470   1.404       .  A
C1465      H1481   1.084       .  S
C1466      C1467   1.403       .  A
C1466      H1482   1.083       .  S
C1467      C1477   1.406       .  A
C1467      C1468   1.413       .  A
C1468      C1474   1.411       .  A
C1468      C1469   1.414       .  A
C1469      C1471   1.412       .  A
C1469      C1470   1.411       .  A
C1470      C1478   1.404       .  A
C1471      C1480   1.406       .  A
C1471      C1472   1.404       .  A
C1472      C1473   1.400       .  A
C1472      H1483   1.084       .  S
C1473      C1474   1.404       .  A
C1473      H1484   1.084       .  S
C1474      C1475   1.404       .  A
C1475      C1476   1.407       .  A
C1475      H1485   1.084       .  S
C1476      C1477   1.405       .  A
C1477      H1486   1.084       .  S
C1478      C1479   1.408       .  A
C1478      H1487   1.084       .  S
C1479      C1480   1.410       .  A
C1480      H1488   1.084       .  S
C1489      C1490   1.401       .  A
C1489      C1494   1.405       .  A
C1489      H1505   1.084       .  S
C1490      C1491   1.404       .  A
C1490      H1506   1.084       .  S
C1491      C1501   1.405       .  A
C1491      C1492   1.413       .  A
C1492      C1498   1.412       .  A
C1492      C1493   1.410       .  A
C1493      C1495   1.411       .  A
C1493      C1494   1.411       .  A
C1494      C1502   1.405       .  A
C1495      C1504   1.398       .  A
C1495      C1496   1.402       .  A
C1496      C1497   1.395       .  A
C1496      H1507   1.084       .  S
C1497      C1498   1.401       .  A
C1497      H1508   1.084       .  S
C1498      C1499   1.397       .  A
C1499      C1500   1.401       .  A
C1499      H1509   1.085       .  S
C1500      C1501   1.405       .  A
C1501      H1510   1.084       .  S
C1502      C1503   1.410       .  A
C1502      H1511   1.084       .  S
C1503      C1504   1.406       .  A
C1504      H1512   1.084       .  S
C1513      C1514   1.401       .  A
C1513      C1518   1.405       .  A
C1513      H1529   1.084       .  S
C1514      C1515   1.404       .  A
C1514      H1530   1.083       .  S
C1515      C1525   1.408       .  A
C1515      C1516   1.413       .  A
C1516      C1522   1.410       .  A
C1516      C1517   1.415       .  A
C1517      C1519   1.413       .  A
C1517      C1518   1.410       .  A
C1518      C1526   1.405       .  A
C1519      C1528   1.406       .  A
C1519      C1520   1.403       .  A
C1520      C1521   1.400       .  A
C1520      H1531   1.084       .  S
C1521      C1522   1.404       .  A
C1521      H1532   1.083       .  S
C1522      C1523   1.404       .  A
C1523      C1524   1.408       .  A
C1523      H1533   1.084       .  S
C1524      C1525   1.407       .  A
C1525      H1534   1.084       .  S
C1526      C1527   1.411       .  A
C1526      H1535   1.084       .  S
C1527      C1528   1.407       .  A
C1528      H1536   1.084       .  S
C1537      C1538   1.396       .  A
C1537      C1542   1.402       .  A
C1537      H1553   1.084       .  S
C1538      C1539   1.402       .  A
C1538      H1554   1.084       .  S
C1539      C1549   1.399       .  A
C1539      C1540   1.412       .  A
C1540      C1546   1.413       .  A
C1540      C1541   1.412       .  A
C1541      C1543   1.411       .  A
C1541      C1542   1.411       .  A
C1542      C1550   1.399       .  A
C1543      C1552   1.407       .  A
C1543      C1544   1.405       .  A
C1544      C1545   1.402       .  A
C1544      H1555   1.084       .  S
C1545      C1546   1.405       .  A
C1545      H1556   1.084       .  S
C1546      C1547   1.407       .  A
C1547      C1548   1.406       .  A
C1547      H1557   1.084       .  S
C1548      C1549   1.401       .  A
C1549      H1558   1.085       .  S
C1550      C1551   1.406       .  A
C1550      H1559   1.084       .  S
C1551      C1552   1.411       .  A
C1552      H1560   1.084       .  S
C1561      C1562   1.402       .  A
C1561      C1566   1.405       .  A
C1561      H1577   1.084       .  S
C1562      C1563   1.405       .  A
C1562      H1578   1.083       .  S
C1563      C1573   1.408       .  A
C1563      C1564   1.412       .  A
C1564      C1570   1.411       .  A
C1564      C1565   1.413       .  A
C1565      C1567   1.411       .  A
C1565      C1566   1.411       .  A
C1566      C1574   1.407       .  A
C1567      C1576   1.400       .  A
C1567      C1568   1.403       .  A
C1568      C1569   1.397       .  A
C1568      H1579   1.084       .  S
C1569      C1570   1.402       .  A
C1569      H1580   1.084       .  S
C1570      C1571   1.400       .  A
C1571      C1572   1.405       .  A
C1571      H1581   1.084       .  S
C1572      C1573   1.409       .  A
C1573      H1582   1.084       .  S
C1574      C1575   1.410       .  A
C1574      H1583   1.084       .  S
C1575      C1576   1.407       .  A
C1576      H1584   1.084       .  S
C1585      C1586   1.398       .  A
C1585      C1590   1.403       .  A
C1585      H1601   1.084       .  S
C1586      C1587   1.403       .  A
C1586      H1602   1.084       .  S
C1587      C1597   1.402       .  A
C1587      C1588   1.412       .  A
C1588      C1594   1.410       .  A
C1588      C1589   1.409       .  A
C1589      C1591   1.413       .  A
C1589      C1590   1.412       .  A
C1590      C1598   1.401       .  A
C1591      C1600   1.399       .  A
C1591      C1592   1.402       .  A
C1592      C1593   1.397       .  A
C1592      H1603   1.084       .  S
C1593      C1594   1.403       .  A
C1593      H1604   1.084       .  S
C1594      C1595   1.399       .  A
C1595      C1596   1.408       .  A
C1595      H1605   1.084       .  S
C1596      C1597   1.407       .  A
C1597      H1606   1.084       .  S
C1598      C1599   1.402       .  A
C1598      H1607   1.084       .  S
C1599      C1600   1.402       .  A
C1600      H1608   1.085       .  S
C1609      C1610   1.403       .  A
C1609      C1614   1.405       .  A
C1609      H1625   1.083       .  S
C1610      C1611   1.406       .  A
C1610      H1626   1.084       .  S
C1611      C1621   1.408       .  A
C1611      C1612   1.410       .  A
C1612      C1618   1.412       .  A
C1612      C1613   1.416       .  A
C1613      C1615   1.411       .  A
C1613      C1614   1.414       .  A
C1614      C1622   1.410       .  A
C1615      C1624   1.402       .  A
C1615      C1616   1.403       .  A
C1616      C1617   1.399       .  A
C1616      H1627   1.084       .  S
C1617      C1618   1.403       .  A
C1617      H1628   1.084       .  S
C1618      C1619   1.405       .  A
C1619      C1620   1.409       .  A
C1619      H1629   1.084       .  S
C1620      C1621   1.413       .  A
C1621      H1630   1.084       .  S
C1622      C1623   1.407       .  A
C1622      H1631   1.084       .  S
C1623      C1624   1.404       .  A
C1624      H1632   1.084       .  S
C1633      C1634   1.397       .  A
C1633      C1638   1.402       .  A
C1633      H1649   1.084       .  S
C1634      C1635   1.403       .  A
C1634      H1650   1.084       .  S
C1635      C1645   1.399       .  A
C1635      C1636   1.410       .  A
C1636      C1642   1.412       .  A
C1636      C1637   1.411       .  A
C1637      C1639   1.411       .  A
C1637      C1638   1.412       .  A
C1638      C1646   1.400       .  A
C1639      C1648   1.405       .  A
C1639      C1640   1.404       .  A
C1640      C1641   1.401       .  A
C1640      H1651   1.083       .  S
C1641      C1642   1.404       .  A
C1641      H1652   1.084       .  S
C1642      C1643   1.406       .  A
C1643      C1644   1.408       .  A
C1643      H1653   1.084       .  S
C1644      C1645   1.407       .  A
C1645      H1654   1.084       .  S
C1646      C1647   1.406       .  A
C1646      H1655   1.084       .  S
C1647      C1648   1.408       .  A
C1648      H1656   1.084       .  S
C1657      C1658   1.399       .  A
C1657      C1662   1.404       .  A
C1657      H1673   1.084       .  S
C1658      C1659   1.403       .  A
C1658      H1674   1.084       .  S
C1659      C1669   1.405       .  A
C1659      C1660   1.412       .  A
C1660      C1666   1.411       .  A
C1660      C1661   1.416       .  A
C1661      C1663   1.413       .  A
C1661      C1662   1.410       .  A
C1662      C1670   1.403       .  A
C1663      C1672   1.410       .  A
C1663      C1664   1.405       .  A
C1664      C1665   1.402       .  A
C1664      H1675   1.083       .  S
C1665      C1666   1.405       .  A
C1665      H1676   1.083       .  S
C1666      C1667   1.407       .  A
C1667      C1668   1.409       .  A
C1667      H1677   1.084       .  S
C1668      C1669   1.407       .  A
C1669      H1678   1.084       .  S
C1670      C1671   1.409       .  A
C1670      H1679   1.084       .  S
C1671      C1672   1.409       .  A
C1672      H1680   1.084       .  S
C1681      C1682   1.397       .  A
C1681      C1686   1.403       .  A
C1681      H1697   1.084       .  S
C1682      C1683   1.402       .  A
C1682      H1698   1.084       .  S
C1683      C1693   1.401       .  A
C1683      C1684   1.412       .  A
C1684      C1690   1.412       .  A
C1684      C1685   1.414       .  A
C1685      C1687   1.412       .  A
C1685      C1686   1.411       .  A
C1686      C1694   1.401       .  A
C1687      C1696   1.410       .  A
C1687      C1688   1.405       .  A
C1688      C1689   1.403       .  A
C1688      H1699   1.084       .  S
C1689      C1690   1.405       .  A
C1689      H1700   1.083       .  S
C1690      C1691   1.408       .  A
C1691      C1692   1.408       .  A
C1691      H1701   1.084       .  S
C1692      C1693   1.403       .  A
C1693      H1702   1.085       .  S
C1694      C1695   1.408       .  A
C1694      H1703   1.084       .  S
C1695      C1696   1.410       .  A
C1696      H1704   1.084       .  S
C1705      C1706   1.395       .  A
C1705      C1710   1.402       .  A
C1705      H1721   1.084       .  S
C1706      C1707   1.401       .  A
C1706      H1722   1.084       .  S
C1707      C1717   1.398       .  A
C1707      C1708   1.412       .  A
C1708      C1714   1.412       .  A
C1708      C1709   1.412       .  A
C1709      C1711   1.412       .  A
C1709      C1710   1.410       .  A
C1710      C1718   1.398       .  A
C1711      C1720   1.409       .  A
C1711      C1712   1.406       .  A
C1712      C1713   1.403       .  A
C1712      H1723   1.084       .  S
C1713      C1714   1.405       .  A
C1713      H1724   1.084       .  S
C1714      C1715   1.408       .  A
C1715      C1716   1.407       .  A
C1715      H1725   1.084       .  S
C1716      C1717   1.402       .  A
C1717      H1726   1.085       .  S
C1718      C1719   1.407       .  A
C1718      H1727   1.084       .  S
C1719      C1720   1.412       .  A
C1720      H1728   1.084       .  S
C1729      C1730   1.400       .  A
C1729      C1734   1.404       .  A
C1729      H1745   1.084       .  S
C1730      C1731   1.404       .  A
C1730      H1746   1.084       .  S
C1731      C1741   1.407       .  A
C1731      C1732   1.412       .  A
C1732      C1738   1.410       .  A
C1732      C1733   1.415       .  A
C1733      C1735   1.413       .  A
C1733      C1734   1.411       .  A
C1734      C1742   1.404       .  A
C1735      C1744   1.407       .  A
C1735      C1736   1.404       .  A
C1736      C1737   1.400       .  A
C1736      H1747   1.083       .  S
C1737      C1738   1.404       .  A
C1737      H1748   1.084       .  S
C1738      C1739   1.405       .  A
C1739      C1740   1.410       .  A
C1739      H1749   1.084       .  S
C1740      C1741   1.409       .  A
C1741      H1750   1.084       .  S
C1742      C1743   1.408       .  A
C1742      H1751   1.084       .  S
C1743      C1744   1.406       .  A
C1744      H1752   1.084       .  S
C1753      C1754   1.402       .  A
C1753      C1758   1.405       .  A
C1753      H1769   1.083       .  S
C1754      C1755   1.405       .  A
C1754      H1770   1.084       .  S
C1755      C1765   1.409       .  A
C1755      C1756   1.412       .  A
C1756      C1762   1.410       .  A
C1756      C1757   1.415       .  A
C1757      C1759   1.412       .  A
C1757      C1758   1.412       .  A
C1758      C1766   1.408       .  A
C1759      C1768   1.403       .  A
C1759      C1760   1.403       .  A
C1760      C1761   1.398       .  A
C1760      H1771   1.084       .  S
C1761      C1762   1.404       .  A
C1761      H1772   1.084       .  S
C1762      C1763   1.402       .  A
C1763      C1764   1.410       .  A
C1763      H1773   1.084       .  S
C1764      C1765   1.411       .  A
C1765      H1774   1.084       .  S
C1766      C1767   1.409       .  A
C1766      H1775   1.084       .  S
C1767      C1768   1.407       .  A
C1768      H1776   1.084       .  S
C1777      C1778   1.400       .  A
C1777      C1782   1.404       .  A
C1777      H1793   1.083       .  S
C1778      C1779   1.404       .  A
C1778      H1794   1.084       .  S
C1779      C1789   1.405       .  A
C1779      C1780   1.412       .  A
C1780      C1786   1.410       .  A
C1780      C1781   1.411       .  A
C1781      C1783   1.412       .  A
C1781      C1782   1.412       .  A
C1782      C1790   1.404       .  A
C1783      C1792   1.399       .  A
C1783      C1784   1.402       .  A
C1784      C1785   1.397       .  A
C1784      H1795   1.084       .  S
C1785      C1786   1.403       .  A
C1785      H1796   1.084       .  S
C1786      C1787   1.400       .  A
C1787      C1788   1.409       .  A
C1787      H1797   1.084       .  S
C1788      C1789   1.408       .  A
C1789      H1798   1.084       .  S
C1790      C1791   1.406       .  A
C1790      H1799   1.084       .  S
C1791      C1792   1.405       .  A
C1792      H1800   1.085       .  S
C1801      C1802   1.399       .  A
C1801      C1806   1.403       .  A
C1801      H1817   1.084       .  S
C1802      C1803   1.404       .  A
C1802      H1818   1.084       .  S
C1803      C1813   1.404       .  A
C1803      C1804   1.411       .  A
C1804      C1810   1.411       .  A
C1804      C1805   1.415       .  A
C1805      C1807   1.413       .  A
C1805      C1806   1.411       .  A
C1806      C1814   1.402       .  A
C1807      C1816   1.408       .  A
C1807      C1808   1.404       .  A
C1808      C1809   1.402       .  A
C1808      H1819   1.083       .  S
C1809      C1810   1.405       .  A
C1809      H1820   1.084       .  S
C1810      C1811   1.407       .  A
C1811      C1812   1.411       .  A
C1811      H1821   1.084       .  S
C1812      C1813   1.410       .  A
C1813      H1822   1.084       .  S
C1814      C1815   1.407       .  A
C1814      H1823   1.085       .  S
C1815      C1816   1.407       .  A
C1816      H1824   1.084       .  S
C1825      C1826   1.397       .  A
C1825      C1830   1.403       .  A
C1825      H1841   1.084       .  S
C1826      C1827   1.402       .  A
C1826      H1842   1.084       .  S
C1827      C1837   1.399       .  A
C1827      C1828   1.412       .  A
C1828      C1834   1.412       .  A
C1828      C1829   1.412       .  A
C1829      C1831   1.412       .  A
C1829      C1830   1.410       .  A
C1830      C1838   1.400       .  A
C1831      C1840   1.408       .  A
C1831      C1832   1.405       .  A
C1832      C1833   1.401       .  A
C1832      H1843   1.083       .  S
C1833      C1834   1.404       .  A
C1833      H1844   1.084       .  S
C1834      C1835   1.405       .  A
C1835      C1836   1.406       .  A
C1835      H1845   1.084       .  S
C1836      C1837   1.404       .  A
C1837      H1846   1.085       .  S
C1838      C1839   1.409       .  A
C1838      H1847   1.084       .  S
C1839      C1840   1.410       .  A
C1840      H1848   1.084       .  S
C1849      C1850   1.401       .  A
C1849      C1854   1.404       .  A
C1849      H1865   1.083       .  S
C1850      C1851   1.404       .  A
C1850      H1866   1.083       .  S
C1851      C1861   1.409       .  A
C1851      C1852   1.413       .  A
C1852      C1858   1.410       .  A
C1852      C1853   1.418       .  A
C1853      C1855   1.414       .  A
C1853      C1854   1.411       .  A
C1854      C1862   1.406       .  A
C1855      C1864   1.411       .  A
C1855      C1856   1.405       .  A
C1856      C1857   1.403       .  A
C1856      H1867   1.083       .  S
C1857      C1858   1.406       .  A
C1857      H1868   1.084       .  S
C1858      C1859   1.408       .  A
C1859      C1860   1.413       .  A
C1859      H1869   1.084       .  S
C1860      C1861   1.409       .  A
C1861      H1870   1.084       .  S
C1862      C1863   1.407       .  A
C1862      H1871   1.084       .  S
C1863      C1864   1.408       .  A
C1864      H1872   1.084       .  S
C1873      C1874   1.401       .  A
C1873      C1878   1.405       .  A
C1873      H1889   1.083       .  S
C1874      C1875   1.404       .  A
C1874      H1890   1.084       .  S
C1875      C1885   1.406       .  A
C1875      C1876   1.411       .  A
C1876      C1882   1.414       .  A
C1876      C1877   1.418       .  A
C1877      C1879   1.410       .  A
C1877      C1878   1.412       .  A
C1878      C1886   1.410       .  A
C1879      C1888   1.408       .  A
C1879      C1880   1.405       .  A
C1880      C1881   1.402       .  A
C1880      H1891   1.084       .  S
C1881      C1882   1.404       .  A
C1881      H1892   1.083       .  S
C1882      C1883   1.410       .  A
C1883      C1884   1.406       .  A
C1883      H1893   1.084       .  S
C1884      C1885   1.406       .  A
C1885      H1894   1.084       .  S
C1886      C1887   1.411       .  A
C1886      H1895   1.084       .  S
C1887      C1888   1.412       .  A
C1888      H1896   1.084       .  S
C1897      C1898   1.405       .  A
C1897      C1902   1.406       .  A
C1897      H1913   1.083       .  S
C1898      C1899   1.406       .  A
C1898      H1914   1.083       .  S
C1899      C1909   1.413       .  A
C1899      C1900   1.412       .  A
C1900      C1906   1.412       .  A
C1900      C1901   1.420       .  A
C1901      C1903   1.411       .  A
C1901      C1902   1.412       .  A
C1902      C1910   1.414       .  A
C1903      C1912   1.408       .  A
C1903      C1904   1.404       .  A
C1904      C1905   1.401       .  A
C1904      H1915   1.084       .  S
C1905      C1906   1.404       .  A
C1905      H1916   1.083       .  S
C1906      C1907   1.409       .  A
C1907      C1908   1.407       .  A
C1907      H1917   1.084       .  S
C1908      C1909   1.409       .  A
C1909      H1918   1.084       .  S
C1910      C1911   1.414       .  A
C1910      H1919   1.084       .  S
C1911      C1912   1.411       .  A
C1912      H1920   1.084       .  S
C1921      C1922   1.404       .  A
C1921      C1926   1.406       .  A
C1921      H1937   1.084       .  S
C1922      C1923   1.405       .  A
C1922      H1938   1.083       .  S
C1923      C1933   1.413       .  A
C1923      C1924   1.413       .  A
C1924      C1930   1.411       .  A
C1924      C1925   1.418       .  A
C1925      C1927   1.413       .  A
C1925      C1926   1.410       .  A
C1926      C1934   1.410       .  A
C1927      C1936   1.409       .  A
C1927      C1928   1.404       .  A
C1928      C1929   1.400       .  A
C1928      H1939   1.083       .  S
C1929      C1930   1.404       .  A
C1929      H1940   1.083       .  S
C1930      C1931   1.405       .  A
C1931      C1932   1.408       .  A
C1931      H1941   1.084       .  S
C1932      C1933   1.410       .  A
C1933      H1942   1.084       .  S
C1934      C1935   1.414       .  A
C1934      H1943   1.084       .  S
C1935      C1936   1.408       .  A
C1936      H1944   1.084       .  S
