geometry optimzed in LAMMPS
_audit_creation_date              2020-11-30 
_audit_creation_method            'lammps2cif' 
_symmetry_space_group_name_H-M    'P1' 
_symmetry_Int_Tables_number       1 
_symmetry_cell_setting            triclinic 
loop_ 
_symmetry_equiv_pos_as_xyz 
  x,y,z 
_cell_length_a                    53.78732625 
_cell_length_b                    53.728190448957136 
_cell_length_c                    53.675325123058116 
_cell_angle_alpha                 90.1837131448357 
_cell_angle_beta                  89.96573551467976 
_cell_angle_gamma                 90.0742039666652 
loop_ 
_atom_site_label 
_atom_site_type_symbol 
_atom_site_fract_x 
_atom_site_fract_y 
_atom_site_fract_z 
_atom_site_charge 
N1          N  0.00072243  0.03760335  0.23669856    -0.36300
N2          N  0.04035833  0.00127430  0.23192013    -0.56900
N3          N  0.00541763  0.96040477  0.24006555    -0.36300
N4          N  0.96570366  0.99672869  0.24291213    -0.56900
C5          C  0.01914101  0.05196061  0.22726304     0.27200
C6          C  0.97897264  0.04934927  0.23203654     0.27200
C7          C  0.02536154  0.94783781  0.23118177     0.27200
C8          C  0.98529147  0.94547898  0.23712981     0.27200
C9          C  0.05413982  0.02234466  0.23277698     0.35900
C10         C  0.05650627  0.98211655  0.23381495     0.35900
C11         C  0.95037219  0.01619052  0.24703005     0.35900
C12         C  0.95282745  0.97607558  0.24918788     0.35900
C13         C  0.00905337  0.07346877  0.21727936    -0.21600
C14         C  0.98373250  0.07167532  0.21998358    -0.21600
C15         C  0.01790046  0.92443278  0.22310333    -0.21600
C16         C  0.99264221  0.92294125  0.22687978    -0.21600
C17         C  0.07909890  0.01652880  0.23534067    -0.22700
C18         C  0.08057604  0.99107837  0.23618697    -0.22700
C19         C  0.92787400  0.00792264  0.25654737    -0.22700
C20         C  0.92940819  0.98246976  0.25784901    -0.22700
C21         C  0.04483618  0.04644147  0.22806065    -0.18000
C22         C  0.95500259  0.04066807  0.23873724    -0.18000
C23         C  0.96050789  0.95158993  0.24360505    -0.18000
C24         C  0.05017910  0.95674192  0.23062502    -0.18000
H25         H  0.01878924  0.08882016  0.20865427     0.14900
H26         H  0.97042359  0.08532256  0.21361983     0.14900
H27         H  0.02938199  0.90998533  0.21501851     0.14900
H28         H  0.98099590  0.90712994  0.22232014     0.14900
H29         H  0.09473331  0.02920832  0.23580060     0.13200
H30         H  0.09754886  0.98038498  0.23762206     0.13200
H31         H  0.91167294  0.01900464  0.26102187     0.13200
H32         H  0.91462902  0.97000983  0.26349979     0.13200
H33         H  0.00304664  0.02171692  0.24745761     0.26400
H34         H  0.00586244  0.97741570  0.24934898     0.26400
O35         O  0.29225373  0.24975994  0.19625894    -0.78200
C36         C  0.29844003  0.29633480  0.13064586     0.82800
O37         O  0.21027112  0.28153248  0.18357775    -0.79300
O38         O  0.22897375  0.26835516  0.09657865    -0.80800
O39         O  0.27489957  0.19621106  0.12520437    -0.80600
O40         O  0.28748059  0.21010793  0.18534910    -0.79300
Zn41       Zn  0.27139785  0.26981562  0.17284758     1.55700
O42         O  0.27425309  0.22714045  0.09764523    -0.80600
Cd43       Cd  0.26100590  0.21289068  0.15736268     1.59700
Cd44       Cd  0.21589162  0.25426025  0.15663738     1.59600
O45         O  0.22989555  0.19340181  0.16932322    -0.80600
O46         O  0.25221424  0.24863049  0.15102162    -1.91100
Cd47       Cd  0.26010123  0.25736175  0.11588956     1.59900
O48         O  0.19945708  0.22160111  0.16859862    -0.80600
O49         O  0.28639810  0.28510916  0.11358133    -0.79300
C50         C  0.22584027  0.29454204  0.19594922     0.83300
C51         C  0.29734766  0.22681061  0.19909059     0.82900
O52         O  0.29449646  0.29188664  0.15358915    -0.78200
C53         C  0.27886303  0.20465555  0.10334843     0.83800
O54         O  0.24917807  0.29169720  0.19322394    -0.78300
C55         C  0.20724116  0.19957419  0.17275907     0.83900
C56         C  0.20609187  0.27046221  0.10230228     0.84200
O57         O  0.19819810  0.26569315  0.12419828    -0.80700
O58         O  0.79902117  0.23754468  0.10787297    -0.78200
C59         C  0.79763896  0.19622656  0.17674574     0.82800
O60         O  0.71722644  0.21105101  0.10774243    -0.79300
O61         O  0.72429755  0.22235165  0.19818722    -0.80800
O62         O  0.77573917  0.29509259  0.17246705    -0.80600
O63         O  0.79184375  0.27790696  0.11364748    -0.79300
Zn64       Zn  0.77558075  0.21880571  0.12974505     1.55700
O65         O  0.76666258  0.26806022  0.20257388    -0.80600
Cd66       Cd  0.76396809  0.27683125  0.14025653     1.59700
Cd67       Cd  0.71915252  0.23560727  0.13724550     1.59600
O68         O  0.73363802  0.29626835  0.12661109    -0.80600
O69         O  0.75428141  0.24160896  0.14754744    -1.91100
Cd70       Cd  0.75726559  0.23572393  0.18393484     1.59900
O71         O  0.70277283  0.26846891  0.12685777    -0.80600
O72         O  0.78452889  0.20974673  0.19118905    -0.79300
C73         C  0.73370728  0.19663217  0.09869296     0.83300
C74         C  0.80343041  0.26024375  0.10279886     0.82900
O75         O  0.79563891  0.19761931  0.15313537    -0.78200
C76         C  0.77435255  0.28935388  0.19549511     0.83800
O77         O  0.75604712  0.19700244  0.10651937    -0.78300
C78         C  0.71088948  0.29044073  0.12320729     0.83900
C79         C  0.70308625  0.21728490  0.18887091     0.84200
O80         O  0.69832181  0.22085040  0.16592145    -0.80700
O81         O  0.79375624  0.79707318  0.15989589    -0.78200
C82         C  0.80129289  0.73393832  0.10944101     0.82800
O83         O  0.71446718  0.78886498  0.12089636    -0.79300
O84         O  0.72877725  0.70086687  0.13058872    -0.80800
O85         O  0.77231923  0.72468127  0.20730931    -0.80600
O86         O  0.78555377  0.78573274  0.19880095    -0.79300
Zn87       Zn  0.77406531  0.77519981  0.13720130     1.55700
O88         O  0.77158481  0.69794862  0.17543188    -0.80600
Cd89       Cd  0.75917237  0.75763230  0.19210243     1.59700
Cd90       Cd  0.71697468  0.76074669  0.14740160     1.59600
O91         O  0.72611351  0.76675535  0.21006948    -0.80600
O92         O  0.75259860  0.75312732  0.15547012    -1.91100
Cd93       Cd  0.75995837  0.71814970  0.14508461     1.59900
O94         O  0.69831699  0.77141235  0.17950341    -0.80600
O95         O  0.78792924  0.71659350  0.11851826    -0.79300
C96         C  0.73163611  0.80097206  0.10984419     0.83300
C97         C  0.79704659  0.79952793  0.18323991     0.82900
O98         O  0.79806592  0.75655561  0.11570499    -0.78200
C99         C  0.77579225  0.70295341  0.19827718     0.83800
O100        O  0.75446178  0.79717726  0.11469840    -0.78300
C101        C  0.70420794  0.77198244  0.20253822     0.83900
C102        C  0.70631672  0.70765527  0.12731834     0.84200
O103        O  0.69899795  0.72954666  0.13297943    -0.80700
O104        O  0.28728958  0.69866431  0.15064211    -0.78200
C105        C  0.29053066  0.76527909  0.19543733     0.82800
O106        O  0.20514508  0.70843682  0.18723156    -0.79300
O107        O  0.21998306  0.79571701  0.16975793    -0.80800
O108        O  0.26196231  0.76436618  0.09492316    -0.80600
O109        O  0.27850584  0.70601717  0.11091770    -0.79300
Zn110      Zn  0.26483844  0.72081152  0.17093907     1.55700
O111        O  0.26143115  0.79467783  0.12340950    -0.80600
Cd112      Cd  0.25065648  0.73290146  0.11441150     1.59700
Cd113      Cd  0.20805428  0.73459255  0.15889052     1.59600
O114        O  0.21837900  0.71967013  0.09794396    -0.80600
O115        O  0.24376890  0.74124237  0.15023628    -1.91100
Cd116      Cd  0.25104692  0.77734963  0.15628662     1.59900
O117        O  0.18952501  0.72106586  0.12786005    -0.80600
O118        O  0.27909002  0.78161226  0.18262685    -0.79300
C119        C  0.22189801  0.69637745  0.19886331     0.83300
C120        C  0.29097533  0.69457635  0.12754332     0.82900
O121        O  0.28633119  0.74213909  0.19252942    -0.78200
C122        C  0.26497533  0.78713106  0.10111938     0.83800
O123        O  0.24485172  0.69931135  0.19388445    -0.78300
C124        C  0.19611663  0.71628224  0.10550340     0.83900
C125        C  0.19768643  0.78916311  0.17447894     0.84200
O126        O  0.19030422  0.76680910  0.17113099    -0.80700
N127        N  0.31460094  0.96146641  0.90480930    -0.36300
N128        N  0.32246356  0.99830998  0.94302961    -0.56900
N129        N  0.32525558  0.03599643  0.90408211    -0.36300
N130        N  0.32008880  0.99893830  0.86568945    -0.56900
C131        C  0.31751508  0.94675637  0.92500605     0.27200
C132        C  0.31762343  0.94697055  0.88443486     0.27200
C133        C  0.33335328  0.04904379  0.92400749     0.27200
C134        C  0.33080480  0.04947250  0.88360758     0.27200
C135        C  0.31408431  0.97944761  0.95739112     0.35900
C136        C  0.32086205  0.01915274  0.95703674     0.35900
C137        C  0.31131277  0.97956361  0.85228510     0.35900
C138        C  0.31564686  0.01954767  0.85205199     0.35900
C139        C  0.32244197  0.92259253  0.91740441    -0.21600
C140        C  0.32278994  0.92277440  0.89177727    -0.21600
C141        C  0.34450051  0.07095546  0.91610917    -0.21600
C142        C  0.34287734  0.07122628  0.89054019    -0.21600
C143        C  0.30768737  0.98822295  0.98081942    -0.22700
C144        C  0.31187700  0.01343406  0.98056854    -0.22700
C145        C  0.30151298  0.98782394  0.82990299    -0.22700
C146        C  0.30416968  0.01324341  0.82980230    -0.22700
C147        C  0.31338239  0.95426261  0.94988646    -0.18000
C148        C  0.31298419  0.95444483  0.85962638    -0.18000
C149        C  0.32271047  0.04380452  0.85925209    -0.18000
C150        C  0.32811454  0.04312295  0.94905916    -0.18000
H151        H  0.32503738  0.90640454  0.92904814     0.14900
H152        H  0.32566037  0.90670961  0.87990982     0.14900
H153        H  0.35220774  0.08561873  0.92763688     0.14900
H154        H  0.34914992  0.08607986  0.87848400     0.14900
H155        H  0.30073395  0.97760881  0.99644886     0.13200
H156        H  0.30856969  0.02607766  0.99594558     0.13200
H157        H  0.29308816  0.97672627  0.81530672     0.13200
H158        H  0.29822513  0.02562123  0.81510545     0.13200
H159        H  0.30737267  0.97938478  0.90488136     0.26400
H160        H  0.31321130  0.02088288  0.90468900     0.26400
N161        N  0.00165343  0.31430692  0.93375399    -0.36300
N162        N  0.96397184  0.31680079  0.89516083    -0.56900
N163        N  0.00356682  0.31360991  0.85865180    -0.36300
N164        N  0.04137117  0.31408576  0.89733196    -0.56900
C165        C  0.98127153  0.32022417  0.94721541     0.27200
C166        C  0.02162115  0.31870918  0.94836864     0.27200
C167        C  0.98391238  0.31982022  0.84425120     0.27200
C168        C  0.02437230  0.31840799  0.84534057     0.27200
C169        C  0.94956475  0.31124668  0.91499222     0.35900
C170        C  0.95054671  0.31091524  0.87472122     0.35900
C171        C  0.05434369  0.30760275  0.91786338     0.35900
C172        C  0.05541687  0.30740405  0.87754557     0.35900
C173        C  0.98834031  0.32886532  0.97053038    -0.21600
C174        C  0.01387592  0.32794222  0.97124983    -0.21600
C175        C  0.99231700  0.32909140  0.82168357    -0.21600
C176        C  0.01788818  0.32817357  0.82236037    -0.21600
C177        C  0.92675879  0.30211151  0.90719116    -0.22700
C178        C  0.92741528  0.30177793  0.88161935    -0.22700
C179        C  0.07687399  0.29707418  0.91113644    -0.22700
C180        C  0.07753441  0.29688577  0.88554191    -0.22700
C181        C  0.95658465  0.31512302  0.93999676    -0.18000
C182        C  0.04624718  0.31177692  0.94254760    -0.18000
C183        C  0.04875397  0.31159853  0.85244700    -0.18000
C184        C  0.95876786  0.31466909  0.85001048    -0.18000
H185        H  0.97630519  0.33445135  0.98571536     0.14900
H186        H  0.02539017  0.33270833  0.98709896     0.14900
H187        H  0.98115888  0.33521096  0.80609177     0.14900
H188        H  0.03028801  0.33345119  0.80738754     0.14900
H189        H  0.91137096  0.29608886  0.91870249     0.13200
H190        H  0.91260737  0.29533999  0.86957623     0.13200
H191        H  0.09121363  0.29003950  0.92335908     0.13200
H192        H  0.09250172  0.28963837  0.87417509     0.13200
H193        H  0.00173131  0.30423156  0.91719321     0.26400
H194        H  0.00276217  0.30323626  0.87495640     0.26400
N195        N  0.66664712  0.99590705  0.93696825    -0.36300
N196        N  0.66851053  0.03310600  0.89728785    -0.56900
N197        N  0.67144654  0.99437822  0.85990126    -0.36300
N198        N  0.67256212  0.95722400  0.89958333    -0.56900
C199        C  0.67119618  0.01677380  0.95039018     0.27200
C200        C  0.67251147  0.97630189  0.95160596     0.27200
C201        C  0.67697529  0.01459856  0.84592967     0.27200
C202        C  0.67945315  0.97414562  0.84716931     0.27200
C203        C  0.66390909  0.04808793  0.91699166     0.35900
C204        C  0.66568927  0.04730460  0.87674357     0.35900
C205        C  0.66876277  0.94275579  0.91980653     0.35900
C206        C  0.67143721  0.94194731  0.87956562     0.35900
C207        C  0.67938125  0.01031564  0.97401443    -0.21600
C208        C  0.68013277  0.98479791  0.97480192    -0.21600
C209        C  0.68823383  0.00707719  0.82392012    -0.21600
C210        C  0.68980601  0.98157150  0.82470302    -0.21600
C211        C  0.65792632  0.07182985  0.90894893    -0.22700
C212        C  0.65894181  0.07130838  0.88343540    -0.22700
C213        C  0.66507768  0.91824581  0.91261680    -0.22700
C214        C  0.66671487  0.91773442  0.88711092    -0.22700
C215        C  0.66789288  0.04150753  0.94209975    -0.18000
C216        C  0.67105213  0.95092034  0.94472932    -0.18000
C217        C  0.67695227  0.94908826  0.85484218    -0.18000
C218        C  0.67180353  0.03963728  0.85230046    -0.18000
H219        H  0.68456410  0.02267598  0.98910472     0.14900
H220        H  0.68603981  0.97379204  0.99057549     0.14900
H221        H  0.69486987  0.01874479  0.80891592     0.14900
H222        H  0.69783544  0.96985076  0.81038025     0.14900
H223        H  0.65389606  0.08800457  0.92032296     0.13200
H224        H  0.65582015  0.08701126  0.87125660     0.13200
H225        H  0.66205591  0.90232103  0.92454780     0.13200
H226        H  0.66517001  0.90130437  0.87549383     0.13200
H227        H  0.65826305  0.99507331  0.91954945     0.26400
H228        H  0.66078686  0.99417530  0.87605452     0.26400
N229        N  0.03272855  0.68222895  0.89655741    -0.36300
N230        N  0.99459681  0.68155125  0.93435735    -0.56900
N231        N  0.95786497  0.69270032  0.89557348    -0.36300
N232        N  0.99603533  0.69027246  0.85777063    -0.56900
C233        C  0.04567198  0.67418647  0.91653548     0.27200
C234        C  0.04620033  0.67637446  0.87609084     0.27200
C235        C  0.94276627  0.68693171  0.91488193     0.27200
C236        C  0.94371525  0.69279181  0.87470118     0.27200
C237        C  0.01475698  0.68396901  0.94923432     0.35900
C238        C  0.97466803  0.68718238  0.94858723     0.35900
C239        C  0.01704252  0.69277750  0.84422811     0.35900
C240        C  0.97745855  0.69991041  0.84390713     0.35900
C241        C  0.06751927  0.66293298  0.90873765    -0.21600
C242        C  0.06781101  0.66422013  0.88314092    -0.21600
C243        C  0.91871108  0.68347420  0.90620181    -0.21600
C244        C  0.91928447  0.68732471  0.88086475    -0.21600
C245        C  0.00757258  0.69089107  0.97306146    -0.22700
C246        C  0.98214019  0.69269365  0.97271113    -0.22700
C247        C  0.01177697  0.70387179  0.82155303    -0.22700
C248        C  0.98666055  0.70830192  0.82130768    -0.22700
C249        C  0.03942961  0.67921163  0.94158836    -0.18000
C250        C  0.04066575  0.68403318  0.85157084    -0.18000
C251        C  0.95207454  0.69929598  0.85058875    -0.18000
C252        C  0.94973699  0.68684748  0.94031302    -0.18000
H253        H  0.08197766  0.65512757  0.92034548     0.14900
H254        H  0.08259787  0.65764072  0.87113281     0.14900
H255        H  0.90232114  0.67913014  0.91706614     0.14900
H256        H  0.90343761  0.68647587  0.86847824     0.14900
H257        H  0.01932590  0.69438253  0.98904268     0.13200
H258        H  0.97052265  0.69792332  0.98834044     0.13200
H259        H  0.02463325  0.70818738  0.80665778     0.13200
H260        H  0.97635799  0.71650087  0.80610132     0.13200
H261        H  0.01770271  0.69423247  0.89715869     0.26400
H262        H  0.97593502  0.69914494  0.89701246     0.26400
O263        O  0.28849662  0.75771509  0.60318806    -0.78200
C264        C  0.29580291  0.71286266  0.66999824     0.82800
O265        O  0.20840478  0.71816173  0.61364950    -0.79300
O266        O  0.22475903  0.73733620  0.70183633    -0.80800
O267        O  0.26425142  0.81139551  0.66872029    -0.80600
O268        O  0.27517526  0.79646654  0.60914556    -0.79300
Zn269      Zn  0.26813766  0.73581422  0.62579154     1.55700
O270        O  0.26631713  0.78266634  0.69845433    -0.80600
Cd271      Cd  0.25036688  0.79183511  0.63836393     1.59700
Cd272      Cd  0.21072840  0.74558785  0.64091669     1.59600
O273        O  0.21644130  0.80757796  0.62916709    -0.80600
O274        O  0.24619480  0.75567035  0.64640300    -1.91100
Cd275      Cd  0.25483005  0.75016668  0.68205028     1.59900
O276        O  0.18953203  0.77600293  0.63024459    -0.80600
O277        O  0.28318636  0.72477039  0.68615996    -0.79300
C278        C  0.22530003  0.70733409  0.60093326     0.83300
C279        C  0.28919257  0.78084700  0.59802444     0.82900
O280        O  0.29179454  0.71546787  0.64673845    -0.78200
C281        C  0.26918815  0.80495323  0.69101938     0.83800
O282        O  0.24825684  0.71247125  0.60401139    -0.78300
C283        C  0.19441332  0.79900654  0.62691620     0.83900
C284        C  0.20272175  0.73097886  0.69592591     0.84200
O285        O  0.19487877  0.73234783  0.67355039    -0.80700
N286        N  0.99626261  0.97294285  0.57686716    -0.36300
N287        N  0.03602738  0.00935303  0.57456068    -0.56900
N288        N  0.99850778  0.04837478  0.57428331    -0.36300
N289        N  0.95903350  0.01197588  0.57378260    -0.56900
C290        C  0.01596588  0.95802087  0.57221281     0.27200
C291        C  0.97549107  0.95946747  0.57241753     0.27200
C292        C  0.01940739  0.06125828  0.56888638     0.27200
C293        C  0.97901412  0.06251820  0.56707622     0.27200
C294        C  0.04918363  0.98891477  0.58094337     0.35900
C295        C  0.05031616  0.02922538  0.58051196     0.35900
C296        C  0.94428180  0.99265698  0.58004868     0.35900
C297        C  0.94537116  0.03276473  0.57726118     0.35900
C298        C  0.00760072  0.93484351  0.56440033    -0.21600
C299        C  0.98201464  0.93570302  0.56471039    -0.21600
C300        C  0.01318646  0.08373487  0.55793243    -0.21600
C301        C  0.98765403  0.08449342  0.55670333    -0.21600
C302        C  0.07202096  0.99583739  0.59073401    -0.22700
C303        C  0.07270478  0.02139091  0.59053650    -0.22700
C304        C  0.92100197  0.00115821  0.58719495    -0.22700
C305        C  0.92173985  0.02662108  0.58556591    -0.22700
C306        C  0.04105181  0.96410375  0.57734214    -0.18000
C307        C  0.95102650  0.96741797  0.57762975    -0.18000
C308        C  0.95373199  0.05704186  0.57176318    -0.18000
C309        C  0.04370118  0.05424690  0.57592143    -0.18000
H310        H  0.01875828  0.91875718  0.55967065     0.14900
H311        H  0.96965612  0.92040992  0.56028290     0.14900
H312        H  0.02575060  0.09826340  0.55188292     0.14900
H313        H  0.97668021  0.09973184  0.54950837     0.14900
H314        H  0.08656650  0.98377787  0.59759964     0.13200
H315        H  0.08791604  0.03283651  0.59713291     0.13200
H316        H  0.90505656  0.99019108  0.59275270     0.13200
H317        H  0.90655895  0.03909833  0.58990705     0.13200
H318        H  0.99686716  0.99003492  0.58596390     0.26400
H319        H  0.99762681  0.03259678  0.58543062     0.26400
O320        O  0.30428932  0.29030132  0.64912026    -0.78200
C321        C  0.30714037  0.22637974  0.60068032     0.82800
O322        O  0.22086945  0.28188970  0.61820409    -0.79300
O323        O  0.23715659  0.19373936  0.62763643    -0.80800
O324        O  0.28220558  0.22107263  0.70179198    -0.80600
O325        O  0.29727898  0.28042774  0.68869622    -0.79300
Zn326      Zn  0.28160986  0.26881594  0.62854827     1.55700
O327        O  0.28161808  0.19253227  0.67152375    -0.80600
Cd328      Cd  0.26993033  0.25345302  0.68523102     1.59700
Cd329      Cd  0.22560336  0.25394609  0.64415586     1.59600
O330        O  0.23912099  0.26566894  0.70498889    -0.80600
O331        O  0.26174055  0.24711396  0.64940226    -1.91100
Cd332      Cd  0.26896226  0.21159063  0.64054725     1.59900
O333        O  0.20855928  0.26517875  0.67702034    -0.80600
O334        O  0.29588384  0.20942981  0.61288307    -0.79300
C335        C  0.23657363  0.29463962  0.60583815     0.83300
C336        C  0.30867893  0.29317016  0.67226076     0.82900
O337        O  0.30305068  0.24935397  0.60484715    -0.78200
C338        C  0.28566043  0.19885796  0.69409568     0.83800
O339        O  0.25988918  0.29134510  0.60827684    -0.78300
C340        C  0.21640886  0.26905442  0.69913035     0.83900
C341        C  0.21460195  0.20062611  0.62507204     0.84200
O342        O  0.20757397  0.22259358  0.63074513    -0.80700
O343        O  0.78839912  0.21221478  0.65113818    -0.78200
C344        C  0.79087958  0.27760452  0.69686241     0.82800
O345        O  0.70740009  0.21615385  0.68872802    -0.79300
O346        O  0.71826616  0.30428847  0.67432268    -0.80800
O347        O  0.75856565  0.27892729  0.59744380    -0.80600
O348        O  0.78021843  0.22131333  0.61163804    -0.79300
Zn349      Zn  0.76601495  0.23287105  0.67232928     1.55700
O350        O  0.75812197  0.30774377  0.62739530    -0.80600
Cd351      Cd  0.75057099  0.24587618  0.61607007     1.59700
Cd352      Cd  0.70859506  0.24330592  0.66098220     1.59600
O353        O  0.71955928  0.22986121  0.59964040    -0.80600
O354        O  0.74375510  0.25238970  0.65226410    -1.91100
Cd355      Cd  0.74969235  0.28840553  0.65948582     1.59900
O356        O  0.69084070  0.22906424  0.62968224    -0.80600
O357        O  0.77809423  0.29359451  0.68499621    -0.79300
C358        C  0.72508693  0.20511586  0.70001408     0.83300
C359        C  0.79266730  0.20947311  0.62798023     0.82900
O360        O  0.78769058  0.25437561  0.69353398    -0.78200
C361        C  0.76074289  0.30152102  0.60461089     0.83800
O362        O  0.74769647  0.21006123  0.69514533    -0.78300
C363        C  0.69768405  0.22469611  0.60729963     0.83900
C364        C  0.69621256  0.29677119  0.67861145     0.84200
O365        O  0.68946747  0.27440482  0.67407832    -0.80700
O366        O  0.70882603  0.75451938  0.59211849    -0.78200
C367        C  0.77527948  0.70856919  0.59155401     0.82800
O368        O  0.71674136  0.72125222  0.67555215    -0.79300
O369        O  0.80572296  0.74119119  0.66144457    -0.80800
O370        O  0.77259803  0.81107126  0.61706549    -0.80600
O371        O  0.71437562  0.79439926  0.60177095    -0.79300
Zn372      Zn  0.73057195  0.73490009  0.61525077     1.55700
O373        O  0.80254270  0.78240540  0.61442690    -0.80600
Cd374      Cd  0.74152851  0.79196265  0.62927722     1.59700
Cd375      Cd  0.74341237  0.74885550  0.67173929     1.59600
O376        O  0.72846787  0.80953021  0.66126202    -0.80600
O377        O  0.75050578  0.75640841  0.63601981    -1.91100
Cd378      Cd  0.78674233  0.75038188  0.62884464     1.59900
O379        O  0.73079472  0.78012378  0.69032942    -0.80600
O380        O  0.79158551  0.72142654  0.60313836    -0.79300
C381        C  0.70466443  0.70926160  0.65899126     0.83300
C382        C  0.70379686  0.77743908  0.58888082     0.82900
O383        O  0.75213992  0.71243613  0.59474925    -0.78200
C384        C  0.79480460  0.80467500  0.61170134     0.83800
O385        O  0.70829856  0.71307890  0.63586755    -0.78300
C386        C  0.72568311  0.80230158  0.68371921     0.83900
C387        C  0.79815410  0.73597735  0.68337790     0.84200
O388        O  0.77527545  0.73728311  0.68941382    -0.80700
N389        N  0.50294152  0.47123511  0.72190383    -0.36300
N390        N  0.46470666  0.50917138  0.71754656    -0.56900
N391        N  0.50146743  0.54844142  0.72470299    -0.36300
N392        N  0.53994744  0.51037175  0.72643627    -0.56900
C393        C  0.48374746  0.45757411  0.71295796     0.27200
C394        C  0.52400339  0.45823492  0.71730626     0.27200
C395        C  0.48186681  0.56174899  0.71623993     0.27200
C396        C  0.52208490  0.56241524  0.72091055     0.27200
C397        C  0.45009858  0.48872361  0.71874631     0.35900
C398        C  0.44939407  0.52897080  0.71976486     0.35900
C399        C  0.55459935  0.49038053  0.73053980     0.15100
C400        C  0.55379880  0.53064849  0.73196107     0.35900
C401        C  0.49266420  0.43548557  0.70296250    -0.21600
C402        C  0.51805986  0.43591820  0.70566535    -0.21600
C403        C  0.49004832  0.58463035  0.70759334    -0.21600
C404        C  0.51539378  0.58504653  0.71051160    -0.21600
C405        C  0.42547384  0.49554811  0.72205494    -0.22700
C406        C  0.42502302  0.52106777  0.72266576    -0.22700
C407        C  0.57770811  0.49797360  0.73911440    -0.22700
C408        C  0.57720662  0.52350084  0.73999011    -0.22700
C409        C  0.45833535  0.46420298  0.71412966    -0.18000
C410        C  0.54838988  0.46568858  0.72384432    -0.18000
C411        C  0.54678343  0.55539161  0.72661420    -0.18000
C412        C  0.45673884  0.55396711  0.71633688    -0.18000
H413        H  0.48201756  0.42066314  0.69437429     0.14900
H414        H  0.53070053  0.42148067  0.69954886     0.14900
H415        H  0.47898772  0.59938685  0.69958253     0.14900
H416        H  0.52751168  0.60020156  0.70514315     0.14900
H417        H  0.40942757  0.48342623  0.72318435     0.13200
H418        H  0.40856063  0.53251403  0.72436968     0.13200
H419        H  0.59354225  0.48637028  0.74348273     0.13200
H420        H  0.59258524  0.53547746  0.74511371     0.13200
H421        H  0.50152004  0.48739716  0.73251788     0.26400
H422        H  0.50060967  0.53160222  0.73417108     0.26400
N423        N  0.50930731  0.53704132  0.08773516    -0.36300
N424        N  0.54559829  0.49654843  0.08963454    -0.56900
N425        N  0.50604785  0.46044008  0.09462544    -0.36300
N426        N  0.46990778  0.50069767  0.09452108    -0.56900
C427        C  0.53054798  0.54999670  0.09173846     0.27200
C428        C  0.49009663  0.55213635  0.09398267     0.27200
C429        C  0.52587381  0.44588314  0.09978259     0.27200
C430        C  0.48554832  0.44812665  0.10239460     0.27200
C431        C  0.56100717  0.51569955  0.08443875     0.35900
C432        C  0.55923054  0.47553809  0.08732076     0.35900
C433        C  0.45587767  0.52114343  0.09065414     0.35900
C434        C  0.45414935  0.48112376  0.09413095     0.35900
C435        C  0.52470211  0.57379753  0.09996908    -0.21600
C436        C  0.49919928  0.57516108  0.10130225    -0.21600
C437        C  0.51774756  0.42377387  0.11038322    -0.21600
C438        C  0.49232075  0.42524571  0.11211465    -0.21600
C439        C  0.58448299  0.50679618  0.07853235    -0.22700
C440        C  0.58339283  0.48137641  0.08048634    -0.22700
C441        C  0.43112772  0.51451715  0.08774268    -0.22700
C442        C  0.43003990  0.48913502  0.08989472    -0.22700
C443        C  0.55506285  0.54110515  0.08787522    -0.18000
C444        C  0.46456055  0.54581023  0.09296156    -0.18000
C445        C  0.46079553  0.45643589  0.09987509    -0.18000
C446        C  0.55096149  0.45155833  0.09419012    -0.18000
H447        H  0.53747412  0.58862168  0.10480310     0.14900
H448        H  0.48859267  0.59121177  0.10727959     0.14900
H449        H  0.52885837  0.40804138  0.11613291     0.14900
H450        H  0.48019307  0.41098239  0.11953385     0.14900
H451        H  0.60092555  0.51754441  0.07410195     0.13200
H452        H  0.59886169  0.46876394  0.07795735     0.13200
H453        H  0.41539223  0.52675864  0.08508925     0.13200
H454        H  0.41331227  0.47793650  0.08913985     0.13200
H455        H  0.50796319  0.51961659  0.07937936     0.26400
H456        H  0.50622531  0.47662368  0.08411945     0.26400
N457        N  0.82652356  0.49597430  0.43445677    -0.36300
N458        N  0.82668004  0.45805867  0.39528046    -0.56900
N459        N  0.82894269  0.49732804  0.35844711    -0.36300
N460        N  0.83227116  0.53502042  0.39775446    -0.56900
C461        C  0.82874525  0.47500281  0.44809520     0.27200
C462        C  0.83293380  0.51534324  0.44934198     0.27200
C463        C  0.83299649  0.47724399  0.34371047     0.27200
C464        C  0.83468000  0.51778189  0.34500569     0.27200
C465        C  0.82009033  0.44368105  0.41482824     0.35900
C466        C  0.82262531  0.44427666  0.37453275     0.35900
C467        C  0.82755898  0.54894755  0.41824939     0.35900
C468        C  0.82733385  0.54966542  0.37795364     0.35900
C469        C  0.83667581  0.48105326  0.47193952    -0.21600
C470        C  0.83948605  0.50651792  0.47267792    -0.21600
C471        C  0.84136072  0.48505906  0.32057071    -0.21600
C472        C  0.84249371  0.51064537  0.32141378    -0.21600
C473        C  0.81231983  0.42048825  0.40647677    -0.22700
C474        C  0.81409274  0.42081227  0.38096382    -0.22700
C475        C  0.81982648  0.57255286  0.41145590    -0.22700
C476        C  0.81956108  0.57297675  0.38593043    -0.22700
C477        C  0.82197486  0.45081245  0.44015867    -0.18000
C478        C  0.83075332  0.54080880  0.44303530    -0.18000
C479        C  0.83090173  0.54268601  0.35278639    -0.18000
C480        C  0.82727169  0.45230735  0.34989767    -0.18000
H481        H  0.83982299  0.46843639  0.48729615     0.14900
H482        H  0.84512815  0.51734483  0.48875039     0.14900
H483        H  0.84573244  0.47356978  0.30456415     0.14900
H484        H  0.84794609  0.52265270  0.30620224     0.14900
H485        H  0.80609872  0.40489530  0.41757624     0.13200
H486        H  0.80949093  0.40555196  0.36858180     0.13200
H487        H  0.81456635  0.58778147  0.42359778     0.13200
H488        H  0.81412057  0.58866181  0.37458440     0.13200
H489        H  0.81788617  0.49717940  0.41721370     0.26400
H490        H  0.81965681  0.49735586  0.37539396     0.26400
N491        N  0.53220786  0.83853600  0.39379454    -0.36300
N492        N  0.49317284  0.83505699  0.35632308    -0.56900
N493        N  0.45540550  0.83556695  0.39470007    -0.36300
N494        N  0.49457340  0.83726614  0.43216052    -0.56900
C495        C  0.54553907  0.83175247  0.37351027     0.27200
C496        C  0.54636260  0.83364260  0.41403124     0.27200
C497        C  0.44205994  0.82790807  0.37471560     0.27200
C498        C  0.44286535  0.82824615  0.41527446     0.27200
C499        C  0.51303326  0.83881637  0.34140539     0.35900
C500        C  0.47283703  0.83789474  0.34186905     0.35900
C501        C  0.51462638  0.84209900  0.44653576     0.35900
C502        C  0.47445840  0.84003711  0.44695491     0.35900
C503        C  0.56865511  0.82306703  0.38091217    -0.21600
C504        C  0.56914970  0.82420355  0.40647836    -0.21600
C505        C  0.42067487  0.81588127  0.38266581    -0.21600
C506        C  0.42120549  0.81604063  0.40826335    -0.21600
C507        C  0.50531342  0.84427692  0.31741399    -0.22700
C508        C  0.47979906  0.84391452  0.31775533    -0.22700
C509        C  0.50721980  0.84839400  0.47046536    -0.22700
C510        C  0.48172533  0.84709607  0.47073169    -0.22700
C511        C  0.53783042  0.83423862  0.34847245    -0.18000
C512        C  0.53943865  0.83789407  0.43910617    -0.18000
C513        C  0.45011494  0.83288803  0.44019197    -0.18000
C514        C  0.44840775  0.83205887  0.34950531    -0.18000
H515        H  0.58366671  0.81656521  0.36915393     0.14900
H516        H  0.58452846  0.81855905  0.41815121     0.14900
H517        H  0.40629711  0.80759055  0.37122627     0.14900
H518        H  0.40726151  0.80792109  0.42030762     0.14900
H519        H  0.51684902  0.84749365  0.30121275     0.13200
H520        H  0.46779362  0.84683930  0.30186161     0.13200
H521        H  0.51899242  0.85261477  0.48627560     0.13200
H522        H  0.46993189  0.85008013  0.48680996     0.13200
H523        H  0.51535817  0.84800176  0.39369912     0.26400
H524        H  0.47096943  0.84708881  0.39433042     0.26400
N525        N  0.18127236  0.46127945  0.40268716    -0.36300
N526        N  0.17462232  0.49816536  0.44200538    -0.56900
N527        N  0.16596815  0.53496617  0.40363533    -0.36300
N528        N  0.16910360  0.49744835  0.36439220    -0.56900
C529        C  0.18031992  0.44668328  0.42312954     0.27200
C530        C  0.17741007  0.44634886  0.38273818     0.27200
C531        C  0.16006207  0.54821122  0.42429945     0.27200
C532        C  0.15763934  0.54790739  0.38375110     0.27200
C533        C  0.18484178  0.47954227  0.45540061     0.35900
C534        C  0.17676460  0.51902281  0.45599868     0.35900
C535        C  0.17752545  0.47864817  0.34985936     0.35900
C536        C  0.16992689  0.51823196  0.35028147     0.35900
C537        C  0.17557061  0.42227117  0.41612403    -0.21600
C538        C  0.17371158  0.42206489  0.39060318    -0.21600
C539        C  0.14741065  0.56960652  0.41745255    -0.21600
C540        C  0.14596961  0.56945676  0.39184895    -0.21600
C541        C  0.19311903  0.48846023  0.47817405    -0.22700
C542        C  0.18807940  0.51350460  0.47853234    -0.22700
C543        C  0.18316208  0.48738184  0.32626527    -0.22700
C544        C  0.17838104  0.51247989  0.32653260    -0.22700
C545        C  0.18588064  0.45443139  0.44765358    -0.18000
C546        C  0.17971529  0.45363607  0.35759328    -0.18000
C547        C  0.16298942  0.54227378  0.35855241    -0.18000
C548        C  0.16818721  0.54283892  0.44881079    -0.18000
H549        H  0.17410848  0.40618502  0.42812782     0.14900
H550        H  0.17056570  0.40578912  0.37908775     0.14900
H551        H  0.14063794  0.58421671  0.42960436     0.14900
H552        H  0.13791999  0.58392365  0.38042658     0.14900
H553        H  0.20205042  0.47807053  0.49290209     0.13200
H554        H  0.19251313  0.52617237  0.49359729     0.13200
H555        H  0.19034476  0.47688439  0.31060575     0.13200
H556        H  0.18117951  0.52505599  0.31107713     0.13200
H557        H  0.18772919  0.47950828  0.40213620     0.26400
H558        H  0.17827778  0.52012088  0.40287287     0.26400
N559        N  0.50459937  0.16298781  0.43438158    -0.36300
N560        N  0.54156570  0.16734805  0.39574355    -0.56900
N561        N  0.50347292  0.16259004  0.35722951    -0.36300
N562        N  0.46642323  0.16044823  0.39598365    -0.56900
C563        C  0.52407302  0.17209692  0.44752191     0.27200
C564        C  0.48383841  0.16796166  0.44766172     0.27200
C565        C  0.52313029  0.17052079  0.34372487     0.27200
C566        C  0.48274200  0.16799169  0.34401919     0.27200
C567        C  0.55662406  0.16505671  0.41575226     0.35900
C568        C  0.55606485  0.16398181  0.37548327     0.35900
C569        C  0.45265093  0.15485294  0.41621707     0.35900
C570        C  0.45186006  0.15591781  0.37599799     0.35900
C571        C  0.51561358  0.18274250  0.46950476    -0.21600
C572        C  0.49018549  0.18010009  0.46961378    -0.21600
C573        C  0.51487837  0.18056911  0.32143812    -0.21600
C574        C  0.48936548  0.17904422  0.32166073    -0.21600
C575        C  0.58070845  0.15987940  0.40819289    -0.22700
C576        C  0.58036039  0.15922366  0.38263930    -0.22700
C577        C  0.42941151  0.14624047  0.40907145    -0.22700
C578        C  0.42888582  0.14698936  0.38351768    -0.22700
C579        C  0.54930668  0.17020297  0.44048929    -0.18000
C580        C  0.45942224  0.16113433  0.44078976    -0.18000
C581        C  0.45808579  0.16261298  0.35140943    -0.18000
C582        C  0.54832867  0.16839333  0.35077820    -0.18000
H583        H  0.52658383  0.19161870  0.48391474     0.14900
H584        H  0.47778400  0.18652697  0.48415354     0.14900
H585        H  0.52604053  0.18845253  0.30664360     0.14900
H586        H  0.47712172  0.18550802  0.30706413     0.14900
H587        H  0.59694347  0.15746536  0.41983478     0.13200
H588        H  0.59630209  0.15632947  0.37066427     0.13200
H589        H  0.41410281  0.14099831  0.42106355     0.13200
H590        H  0.41315720  0.14228362  0.37184059     0.13200
H591        H  0.50555824  0.15192652  0.41845087     0.26400
H592        H  0.50439711  0.15219103  0.37351969     0.26400
C593        C  0.55873145  0.83505838  0.45867878    -0.02900
C594        C  0.57849748  0.85200809  0.46046480    -0.05500
C595        C  0.59752339  0.84820684  0.47779633    -0.20600
C596        C  0.59730004  0.82722516  0.49334006     0.25100
C597        C  0.57705327  0.81062589  0.49194411    -0.18200
C598        C  0.55800233  0.81450369  0.47470374    -0.08200
C599        C  0.61830171  0.82336058  0.51089948    -0.18400
C600        C  0.62537947  0.80062090  0.51866234    -0.23200
C601        C  0.64655344  0.79593652  0.53585828     0.27200
C602        C  0.65595242  0.77164452  0.53740312    -0.20000
C603        C  0.67487306  0.76583836  0.55419214    -0.09600
C604        C  0.68486810  0.78420859  0.56999488    -0.10200
C605        C  0.67583862  0.80867716  0.56818498    -0.03100
C606        C  0.65679709  0.81448891  0.55139237    -0.18200
H607        H  0.57932712  0.86795742  0.44820274     0.10900
H608        H  0.61275493  0.86138761  0.47868582     0.10900
H609        H  0.57576745  0.79471666  0.50417997     0.10600
H610        H  0.54283096  0.80126706  0.47356992     0.11700
H611        H  0.62903416  0.83962158  0.51622320     0.11800
H612        H  0.61582695  0.78436376  0.51132797     0.13700
H613        H  0.64844234  0.75697595  0.52571768     0.10200
H614        H  0.68144003  0.74681189  0.55499116     0.12300
H615        H  0.68304546  0.82322679  0.58018733     0.08900
H616        H  0.64978121  0.83332568  0.55126264     0.11700
C617        C  0.78283817  0.68838431  0.57413982    -0.02900
C618        C  0.76442594  0.67383060  0.56256502    -0.05500
C619        C  0.77081591  0.65438832  0.54660403    -0.20600
C620        C  0.79578016  0.64879046  0.54157555     0.25100
C621        C  0.81442156  0.66338911  0.55298733    -0.18200
C622        C  0.80796301  0.68302264  0.56912151    -0.08200
C623        C  0.80079562  0.62726576  0.52470983    -0.18400
C624        C  0.82328043  0.62000949  0.51629326    -0.23200
C625        C  0.82613874  0.59848228  0.49891550     0.27200
C626        C  0.84584578  0.59829056  0.48173336    -0.20000
C627        C  0.84786159  0.57917804  0.46402095    -0.09600
C628        C  0.83031302  0.55978556  0.46335122    -0.10200
C629        C  0.81130589  0.55932417  0.48122356    -0.03100
C630        C  0.80931712  0.57833881  0.49892967    -0.18200
H631        H  0.74488242  0.67729455  0.56594882     0.10900
H632        H  0.75601749  0.64354159  0.53820136     0.10900
H633        H  0.83390990  0.65969031  0.54982985     0.10600
H634        H  0.82260287  0.69386968  0.57776863     0.11700
H635        H  0.78454198  0.61716112  0.51822470     0.11800
H636        H  0.83976120  0.63070782  0.52086892     0.13700
H637        H  0.85924111  0.61335949  0.48151134     0.10200
H638        H  0.86275091  0.57979155  0.45044131     0.12300
H639        H  0.79766462  0.54447437  0.48111024     0.08900
H640        H  0.79449126  0.57720756  0.51250335     0.11700
C641        C  0.56679792  0.57418384  0.72320182    -0.02900
C642        C  0.56805249  0.59559250  0.73820056    -0.05500
C643        C  0.58595873  0.61392660  0.73342750    -0.20600
C644        C  0.60272556  0.61122948  0.71350364     0.25100
C645        C  0.60173570  0.58939250  0.69895192    -0.18200
C646        C  0.58385243  0.57119244  0.70367528    -0.08200
C647        C  0.62129598  0.63118395  0.70862427    -0.18400
C648        C  0.63146148  0.63483478  0.68596898    -0.23200
C649        C  0.65008329  0.65443004  0.68014169     0.27200
C650        C  0.65372911  0.66075494  0.65507525    -0.20000
C651        C  0.67135778  0.67855384  0.64833252    -0.09600
C652        C  0.68595090  0.69045636  0.66652106    -0.10200
C653        C  0.68251376  0.68404388  0.69167933    -0.03100
C654        C  0.66480893  0.66613746  0.69844941    -0.18200
H655        H  0.55495235  0.59822586  0.75330930     0.10900
H656        H  0.58646071  0.63043841  0.74504982     0.10900
H657        H  0.61483780  0.58609004  0.68402412     0.10600
H658        H  0.58311242  0.55480003  0.69188988     0.11700
H659        H  0.62571061  0.64378483  0.72382308     0.11800
H660        H  0.62509515  0.62359215  0.67039568     0.13700
H661        H  0.64282193  0.65190181  0.64057107     0.10200
H662        H  0.67352049  0.68297323  0.62877983     0.12300
H663        H  0.69364612  0.69269471  0.70611877     0.08900
H664        H  0.66311364  0.66127016  0.71790503     0.11700
C665        C  0.76629525  0.32119903  0.58606354    -0.02900
C666        C  0.76751325  0.34635308  0.59338953    -0.05500
C667        C  0.77259248  0.36496164  0.57596038    -0.20600
C668        C  0.77693823  0.35885876  0.55092385     0.25100
C669        C  0.77537745  0.33378011  0.54345555    -0.18200
C670        C  0.77012336  0.31516318  0.56084875    -0.08200
C671        C  0.78255390  0.37907238  0.53298502    -0.18400
C672        C  0.79719684  0.37562843  0.51291990    -0.23200
C673        C  0.80356294  0.39573907  0.49511397     0.27200
C674        C  0.82576915  0.39391636  0.48144531    -0.20000
C675        C  0.83205486  0.41201544  0.46387643    -0.09600
C676        C  0.81607424  0.43210661  0.45953427    -0.10200
C677        C  0.79389432  0.43407351  0.47313957    -0.03100
C678        C  0.78760679  0.41601104  0.49074695    -0.18200
H679        H  0.76448898  0.35171957  0.61261647     0.10900
H680        H  0.77345754  0.38416782  0.58211733     0.10900
H681        H  0.77784254  0.32851391  0.52413578     0.10600
H682        H  0.76903072  0.29603916  0.55451396     0.11700
H683        H  0.77573865  0.39758974  0.53736831     0.11800
H684        H  0.80600996  0.35766824  0.51006983     0.13700
H685        H  0.83828176  0.37841972  0.48437630     0.10200
H686        H  0.84922272  0.41025618  0.45346838     0.12300
H687        H  0.78126132  0.44938323  0.46976432     0.08900
H688        H  0.77001157  0.41765768  0.50038280     0.11700
C689        C  0.67965885  0.21344748  0.58963299    -0.02900
C690        C  0.65493824  0.20900948  0.59693253    -0.05500
C691        C  0.63768779  0.19936034  0.57998333    -0.20600
C692        C  0.64466011  0.19418462  0.55533131     0.25100
C693        C  0.66960726  0.19767057  0.54823875    -0.18200
C694        C  0.68689024  0.20726716  0.56519549    -0.08200
C695        C  0.62537866  0.18566880  0.53742846    -0.18400
C696        C  0.62634679  0.19124753  0.51300821    -0.23200
C697        C  0.60614939  0.18537664  0.49505957     0.27200
C698        C  0.60426630  0.19980757  0.47339288    -0.20000
C699        C  0.58569661  0.19502066  0.45585801    -0.09600
C700        C  0.56884112  0.17540711  0.45943506    -0.10200
C701        C  0.57066258  0.16084394  0.48102482    -0.03100
C702        C  0.58917232  0.16573557  0.49870710    -0.18200
H703        H  0.64877939  0.21334495  0.61565735     0.10900
H704        H  0.61864814  0.19658361  0.58596485     0.10900
H705        H  0.67584164  0.19301755  0.52962755     0.10600
H706        H  0.70588012  0.21002565  0.55907238     0.11700
H707        H  0.60893929  0.17672724  0.54500414     0.11800
H708        H  0.64174732  0.20234904  0.50610056     0.13700
H709        H  0.61710742  0.21500088  0.47011211     0.10200
H710        H  0.58448589  0.20658481  0.43940994     0.12300
H711        H  0.55786810  0.14556154  0.48403980     0.08900
H712        H  0.59038112  0.15382632  0.51486489     0.11700
C713        C  0.67809663  0.31477141  0.68902233    -0.02900
C714        C  0.65308207  0.30811218  0.69261696    -0.05500
C715        C  0.63597516  0.32557871  0.70157942    -0.20600
C716        C  0.64343975  0.35007110  0.70686920     0.25100
C717        C  0.66864089  0.35649391  0.70414880    -0.18200
C718        C  0.68573286  0.33906542  0.69525101    -0.08200
C719        C  0.62444267  0.36854975  0.71469308    -0.18400
C720        C  0.62638135  0.39291413  0.70916385    -0.23200
C721        C  0.60643044  0.41138719  0.71403403     0.27200
C722        C  0.60563118  0.43287585  0.69925119    -0.20000
C723        C  0.58693409  0.45055620  0.70265284    -0.09600
C724        C  0.56881328  0.44724890  0.72113978    -0.10200
C725        C  0.56973965  0.42604169  0.73630486    -0.03100
C726        C  0.58843733  0.40824756  0.73285293    -0.18200
H727        H  0.64663276  0.28952122  0.68817880     0.10900
H728        H  0.61670306  0.32012479  0.70375939     0.10900
H729        H  0.67524885  0.37493913  0.70889537     0.10600
H730        H  0.70494446  0.34473115  0.69310605     0.11700
H731        H  0.60746192  0.36149056  0.72301957     0.11800
H732        H  0.64237790  0.39934996  0.69863692     0.13700
H733        H  0.61928896  0.43578950  0.68470270     0.10200
H734        H  0.58640546  0.46673794  0.69067825     0.12300
H735        H  0.55591731  0.42326597  0.75071587     0.08900
H736        H  0.58883309  0.39227172  0.74505233     0.11700
C737        C  0.43944078  0.16412267  0.45945978    -0.02900
C738        C  0.43777798  0.14808148  0.47991449    -0.05500
C739        C  0.41994377  0.15230773  0.49839219    -0.20600
C740        C  0.40387736  0.17283662  0.49684489     0.25100
C741        C  0.40510267  0.18834914  0.47579369    -0.18200
C742        C  0.42281814  0.18404257  0.45732089    -0.08200
C743        C  0.38598566  0.17745827  0.51736210    -0.18400
C744        C  0.37764625  0.20042061  0.52309945    -0.23200
C745        C  0.35979531  0.20615325  0.54351531     0.27200
C746        C  0.35423155  0.23123308  0.54835469    -0.20000
C747        C  0.33725006  0.23778796  0.56692462    -0.09600
C748        C  0.32535414  0.21936700  0.58116460    -0.10200
C749        C  0.33092569  0.19426111  0.57643484    -0.03100
C750        C  0.34789182  0.18768139  0.55781182    -0.18200
H751        H  0.45050587  0.13258539  0.48170772     0.10900
H752        H  0.41910624  0.13991208  0.51424760     0.10900
H753        H  0.39240706  0.20375888  0.47344905     0.10600
H754        H  0.42387993  0.19648870  0.44151186     0.11700
H755        H  0.38075896  0.16157186  0.52855843     0.11800
H756        H  0.38468133  0.21618085  0.51261900     0.13700
H757        H  0.36299569  0.24588539  0.53764198     0.10200
H758        H  0.33337796  0.25732906  0.57002721     0.12300
H759        H  0.32206378  0.17961780  0.58705306     0.08900
H760        H  0.35121153  0.16811032  0.55473583     0.11700
C761        C  0.19321183  0.43510907  0.46589915    -0.02900
C762        C  0.21511120  0.42145376  0.46226570    -0.05500
C763        C  0.22171494  0.40269452  0.47892452    -0.20600
C764        C  0.20656279  0.39716600  0.49951913     0.25100
C765        C  0.18461987  0.41107423  0.50315118    -0.18200
C766        C  0.17802079  0.42980982  0.48641251    -0.08200
C767        C  0.21498080  0.37743752  0.51697537    -0.18400
C768        C  0.20131326  0.36843547  0.53598157    -0.23200
C769        C  0.21084905  0.34951990  0.55365640     0.27200
C770        C  0.19381348  0.33454155  0.56657606    -0.20000
C771        C  0.20209218  0.31672733  0.58357213    -0.09600
C772        C  0.22763506  0.31366603  0.58811891    -0.10200
C773        C  0.24466750  0.32896804  0.57550200    -0.03100
C774        C  0.23639285  0.34677716  0.55856630    -0.18200
H775        H  0.22704182  0.42532395  0.44647343     0.10900
H776        H  0.23876991  0.39246670  0.47570193     0.10900
H777        H  0.17253253  0.40795500  0.51889240     0.10600
H778        H  0.16100743  0.44016716  0.48939178     0.11700
H779        H  0.23333150  0.36974020  0.51364335     0.11800
H780        H  0.18223424  0.37433587  0.53850725     0.13700
H781        H  0.17403101  0.33650212  0.56336289     0.10200
H782        H  0.18848106  0.30530552  0.59306639     0.12300
H783        H  0.26445632  0.32731804  0.57881310     0.08900
H784        H  0.25008237  0.35861523  0.54978236     0.11700
C785        C  0.43951291  0.44483933  0.70815968    -0.02900
C786        C  0.42559800  0.44643254  0.68614789    -0.05500
C787        C  0.40866717  0.42770031  0.67988662    -0.20600
C788        C  0.40524337  0.40705651  0.69552557     0.25100
C789        C  0.41931405  0.40552495  0.71762518    -0.18200
C790        C  0.43623316  0.42431306  0.72387427    -0.08200
C791        C  0.38768343  0.38717957  0.68747681    -0.18400
C792        C  0.37842659  0.36961323  0.70278941    -0.23200
C793        C  0.36102498  0.34975179  0.69442564     0.27200
C794        C  0.34608318  0.33784766  0.71224339    -0.20000
C795        C  0.32932613  0.31920668  0.70517590    -0.09600
C796        C  0.32720328  0.31203332  0.68007547    -0.10200
C797        C  0.34260308  0.32349255  0.66231228    -0.03100
C798        C  0.35943374  0.34202196  0.66939352    -0.18200
H799        H  0.42811565  0.46204751  0.67367668     0.10900
H800        H  0.39829613  0.42927892  0.66266892     0.10900
H801        H  0.41790327  0.38967113  0.72987582     0.10600
H802        H  0.44705730  0.42270639  0.74080259     0.11700
H803        H  0.38154571  0.38771706  0.66823835     0.11800
H804        H  0.38272073  0.37028627  0.72250840     0.13700
H805        H  0.34714754  0.34321700  0.73168525     0.10200
H806        H  0.31777581  0.31069315  0.71932292     0.12300
H807        H  0.34169943  0.31811194  0.64286969     0.08900
H808        H  0.37128991  0.34994119  0.65520275     0.11700
C809        C  0.81223176  0.82376332  0.60239308    -0.02900
C810        C  0.83394697  0.81679988  0.58958962    -0.05500
C811        C  0.85089396  0.83484551  0.58168267    -0.20600
C812        C  0.84673418  0.86005225  0.58696580     0.25100
C813        C  0.82475069  0.86712787  0.59923007    -0.18200
C814        C  0.80759396  0.84913860  0.60676047    -0.08200
C815        C  0.86586299  0.87852862  0.58000995    -0.18400
C816        C  0.87140533  0.89789162  0.59489481    -0.23200
C817        C  0.89223552  0.91506283  0.58974687     0.27200
C818        C  0.90525059  0.92536534  0.60992541    -0.20000
C819        C  0.92493199  0.94176534  0.60584159    -0.09600
C820        C  0.93154760  0.94844525  0.58152054    -0.10200
C821        C  0.91849785  0.93841068  0.56125688    -0.03100
C822        C  0.89898770  0.92169949  0.56531667    -0.18200
H823        H  0.83787796  0.79739636  0.58576393     0.10900
H824        H  0.86765451  0.82905820  0.57208837     0.10900
H825        H  0.82082919  0.88653627  0.60302173     0.10600
H826        H  0.79097177  0.85505843  0.61650231     0.11700
H827        H  0.87723572  0.87474218  0.56370452     0.11800
H828        H  0.86176312  0.89997108  0.61257859     0.13700
H829        H  0.90024461  0.92059792  0.62887477     0.10200
H830        H  0.93472630  0.94966400  0.62163179     0.12300
H831        H  0.92322764  0.94379120  0.54240931     0.08900
H832        H  0.88885925  0.91448874  0.54943422     0.11700
C833        C  0.93548812  0.07781273  0.57188245    -0.02900
C834        C  0.91449402  0.07730223  0.55633408    -0.05500
C835        C  0.89641847  0.09592401  0.55818706    -0.20600
C836        C  0.89904624  0.11528789  0.57560745     0.25100
C837        C  0.92084193  0.11651945  0.59007714    -0.18200
C838        C  0.93873307  0.09782744  0.58839033    -0.08200
C839        C  0.87845351  0.13337037  0.57902330    -0.18400
C840        C  0.87378164  0.14387835  0.60134077    -0.23200
C841        C  0.85239548  0.16040766  0.60691328     0.27200
C842        C  0.84621134  0.16420510  0.63200375    -0.20000
C843        C  0.82667008  0.17983453  0.63865606    -0.09600
C844        C  0.81283041  0.19230852  0.62034846    -0.10200
C845        C  0.81890825  0.18855192  0.59513337    -0.03100
C846        C  0.83856235  0.17276872  0.58843527    -0.18200
H847        H  0.91182915  0.06214267  0.54325278     0.10900
H848        H  0.87996544  0.09474624  0.54661279     0.10900
H849        H  0.92403223  0.13173163  0.60294288     0.10600
H850        H  0.95493444  0.09870270  0.60034401     0.11700
H851        H  0.86579808  0.13621834  0.56357262     0.11800
H852        H  0.88540505  0.13887008  0.61707303     0.13700
H853        H  0.85657242  0.15500647  0.64662406     0.10200
H854        H  0.82257294  0.18226936  0.65826944     0.12300
H855        H  0.80866771  0.19799889  0.58060947     0.08900
H856        H  0.84306356  0.17074924  0.56890416     0.11700
C857        C  0.19596081  0.18267238  0.61533798    -0.02900
C858        C  0.20244205  0.15777953  0.61050037    -0.05500
C859        C  0.18459371  0.14079988  0.60198717    -0.20600
C860        C  0.15986332  0.14822669  0.59818805     0.25100
C861        C  0.15356034  0.17334211  0.60228153    -0.18200
C862        C  0.17136347  0.19028054  0.61088494    -0.08200
C863        C  0.14131648  0.12922445  0.59011100    -0.18400
C864        C  0.11659995  0.13187730  0.59331533    -0.23200
C865        C  0.09822244  0.11194865  0.58773001     0.27200
C866        C  0.07559651  0.11205152  0.60076025    -0.20000
C867        C  0.05801495  0.09332709  0.59683509    -0.09600
C868        C  0.06253490  0.07424484  0.57952148    -0.10200
C869        C  0.08481152  0.07442083  0.56587666    -0.03100
C870        C  0.10255156  0.09310561  0.56993414    -0.18200
H871        H  0.22125248  0.15131422  0.61354945     0.10900
H872        H  0.19005609  0.12165909  0.59875180     0.10900
H873        H  0.13501271  0.18017242  0.59872755     0.10600
H874        H  0.16580177  0.20939641  0.61404761     0.11700
H875        H  0.14849330  0.11169227  0.58306377     0.11800
H876        H  0.10948134  0.14845505  0.60239722     0.13700
H877        H  0.07169389  0.12643698  0.61439636     0.10200
H878        H  0.04089946  0.09357797  0.60748346     0.12300
H879        H  0.08844094  0.06006603  0.55214096     0.08900
H880        H  0.11941663  0.09285154  0.55895490     0.11700
C881        C  0.21824463  0.68854066  0.58188619    -0.02900
C882        C  0.23608932  0.67964408  0.56495931    -0.05500
C883        C  0.22958880  0.66236514  0.54661842    -0.20600
C884        C  0.20517737  0.65326814  0.54478237     0.25100
C885        C  0.18719890  0.66214910  0.56171033    -0.18200
C886        C  0.19370790  0.67961086  0.58006431    -0.08200
C887        C  0.19960611  0.63504820  0.52455430    -0.18400
C888        C  0.17902971  0.62070242  0.52325148    -0.23200
C889        C  0.17521286  0.60171089  0.50327164     0.27200
C890        C  0.15931467  0.58141944  0.50775980    -0.20000
C891        C  0.15642515  0.56253761  0.48991696    -0.09600
C892        C  0.16940280  0.56363262  0.46723230    -0.10200
C893        C  0.18450942  0.58434063  0.46231900    -0.03100
C894        C  0.18722277  0.60328176  0.47998807    -0.18200
H895        H  0.25511780  0.68621958  0.56568354     0.10900
H896        H  0.24380679  0.65602922  0.53378247     0.10900
H897        H  0.16806363  0.65607836  0.56070510     0.10600
H898        H  0.17950076  0.68616648  0.59278536     0.11700
H899        H  0.21409136  0.63248053  0.51072743     0.11800
H900        H  0.16530008  0.62155130  0.53802518     0.13700
H901        H  0.14956179  0.57987715  0.52535044     0.10200
H902        H  0.14448328  0.54681750  0.49397665     0.12300
H903        H  0.19450977  0.58566007  0.44484606     0.08900
H904        H  0.19875933  0.61905107  0.47521829     0.11700
C905        C  0.30679525  0.78964811  0.57869875    -0.02900
C906        C  0.30643028  0.81446438  0.57051459    -0.05500
C907        C  0.32317933  0.82261701  0.55232890    -0.20600
C908        C  0.34078764  0.80626213  0.54204661     0.25100
C909        C  0.34088306  0.78129961  0.55000916    -0.18200
C910        C  0.32417845  0.77317416  0.56818155    -0.08200
C911        C  0.35818360  0.81581897  0.52269458    -0.18400
C912        C  0.37952343  0.80425701  0.51639542    -0.23200
C913        C  0.39733711  0.81311689  0.49709999     0.27200
C914        C  0.41983993  0.80012982  0.49445184    -0.20000
C915        C  0.43707519  0.80693520  0.47630083    -0.09600
C916        C  0.43222763  0.82694189  0.46037417    -0.10200
C917        C  0.40991822  0.84018017  0.46291237    -0.03100
C918        C  0.39254019  0.83333081  0.48107487    -0.18200
H919        H  0.29315915  0.82759803  0.57810442     0.10900
H920        H  0.32246544  0.84184906  0.54637292     0.10900
H921        H  0.35341590  0.76772643  0.54206688     0.10600
H922        H  0.32486966  0.75388614  0.57393889     0.11700
H923        H  0.35340017  0.83339862  0.51414797     0.11800
H924        H  0.38482935  0.78753153  0.52627632     0.13700
H925        H  0.42404441  0.78444002  0.50634875     0.10200
H926        H  0.45409822  0.79634036  0.47439254     0.12300
H927        H  0.40584201  0.85555579  0.45057173     0.08900
H928        H  0.37540599  0.84372583  0.48202620     0.11700
C929        C  0.43727613  0.57251106  0.71004251    -0.02900
C930        C  0.42372267  0.56995317  0.68789631    -0.05500
C931        C  0.40561201  0.58738464  0.68160266    -0.20600
C932        C  0.40065728  0.60780988  0.69724101     0.25100
C933        C  0.41462029  0.61055775  0.71932622    -0.18200
C934        C  0.43271704  0.59297931  0.72565584    -0.08200
C935        C  0.38107723  0.62565515  0.68927632    -0.18400
C936        C  0.37261905  0.64491633  0.70303192    -0.23200
C937        C  0.35303716  0.66228128  0.69407948     0.27200
C938        C  0.33959587  0.67634877  0.71157414    -0.20000
C939        C  0.32099822  0.69279281  0.70384954    -0.09600
C940        C  0.31555097  0.69561948  0.67838249    -0.10200
C941        C  0.32930094  0.68188760  0.66087557    -0.03100
C942        C  0.34790388  0.66555449  0.66857220    -0.18200
H943        H  0.42724967  0.55444175  0.67544818     0.10900
H944        H  0.39540708  0.58486546  0.66437966     0.10900
H945        H  0.41194350  0.62616395  0.73175085     0.10600
H946        H  0.44325619  0.59535038  0.74269004     0.11700
H947        H  0.37275139  0.62208237  0.67122719     0.11800
H948        H  0.37941256  0.64779483  0.72181104     0.13700
H949        H  0.34335887  0.67446428  0.73130514     0.10200
H950        H  0.31088900  0.70325781  0.71783422     0.12300
H951        H  0.32579618  0.68383250  0.64111282     0.08900
H952        H  0.35841660  0.65596162  0.65433166     0.11700
C953        C  0.17388832  0.81636755  0.62070447    -0.02900
C954        C  0.14937487  0.80765141  0.61785334    -0.05500
C955        C  0.12998812  0.82419813  0.61267148    -0.20600
C956        C  0.13466652  0.84974983  0.60994695     0.25100
C957        C  0.15912649  0.85853070  0.61309391    -0.18200
C958        C  0.17848978  0.84202333  0.61833597    -0.08200
C959        C  0.11356270  0.86684598  0.60478389    -0.18400
C960        C  0.11637308  0.88864701  0.59273238    -0.23200
C961        C  0.09576576  0.90646776  0.58796887     0.27200
C962        C  0.09882066  0.92436841  0.56918329    -0.20000
C963        C  0.08075698  0.94262268  0.56520163    -0.09600
C964        C  0.05937732  0.94353278  0.58016170    -0.10200
C965        C  0.05603039  0.92544187  0.59868766    -0.03100
C966        C  0.07402470  0.90708330  0.60259978    -0.18200
H967        H  0.14511261  0.78804533  0.61975136     0.10900
H968        H  0.11127713  0.81699148  0.61063375     0.10900
H969        H  0.16334074  0.87819314  0.61204919     0.10600
H970        H  0.19705584  0.84944782  0.62080181     0.11700
H971        H  0.09511458  0.86067763  0.61016394     0.11800
H972        H  0.13452153  0.89349976  0.58532014     0.13700
H973        H  0.11540574  0.92440529  0.55772279     0.10200
H974        H  0.08366950  0.95637905  0.55078025     0.12300
H975        H  0.03975479  0.92596469  0.61057334     0.08900
H976        H  0.07119698  0.89407227  0.61766454     0.11700
C977        C  0.06096220  0.68423085  0.83292435    -0.02900
C978        C  0.06005355  0.66854791  0.81201814    -0.05500
C979        C  0.07784129  0.67081388  0.79316378    -0.20600
C980        C  0.09686049  0.68865745  0.79500732     0.25100
C981        C  0.09794109  0.70399546  0.81632622    -0.18200
C982        C  0.08020572  0.70166792  0.83515001    -0.08200
C983        C  0.11407348  0.69204606  0.77365388    -0.18400
C984        C  0.13658526  0.70275449  0.77593986    -0.23200
C985        C  0.15321271  0.70819591  0.75458359     0.27200
C986        C  0.17852181  0.71220958  0.75935295    -0.20000
C987        C  0.19465033  0.71907137  0.74020680    -0.09600
C988        C  0.18577854  0.72224195  0.71579576    -0.10200
C989        C  0.16046245  0.71798049  0.71090120    -0.03100
C990        C  0.14429129  0.71112245  0.73010786    -0.18200
H991        H  0.04518757  0.65507098  0.81002992     0.10900
H992        H  0.07649716  0.65891331  0.77688971     0.10900
H993        H  0.11174426  0.71852792  0.81815785     0.10600
H994        H  0.08091644  0.71411204  0.85105733     0.11700
H995        H  0.10802265  0.68515758  0.75562126     0.11800
H996        H  0.14354922  0.70740590  0.79434582     0.13700
H997        H  0.18582146  0.71027368  0.77805565     0.10200
H998        H  0.21404141  0.72221786  0.74464562     0.12300
H999        H  0.15300806  0.72051759  0.69234534     0.08900
H1000       H  0.12477351  0.70895986  0.72579066     0.11700
C1001       C  0.93340774  0.70483832  0.83103332    -0.02900
C1002       C  0.92789491  0.72955906  0.82490578    -0.05500
C1003       C  0.91172402  0.73483020  0.80522944    -0.20600
C1004       C  0.90056144  0.71550132  0.79153976     0.25100
C1005       C  0.90588714  0.69067501  0.79799677    -0.18200
C1006       C  0.92223817  0.68543279  0.81755575    -0.08200
C1007       C  0.88445310  0.72195189  0.77000601    -0.18400
C1008       C  0.86616237  0.70707353  0.76153249    -0.23200
C1009       C  0.84940266  0.71444389  0.74091355     0.27200
C1010       C  0.82435084  0.70740567  0.74204952    -0.20000
C1011       C  0.80783276  0.71444497  0.72332195    -0.09600
C1012       C  0.81615042  0.72813850  0.70265459    -0.10200
C1013       C  0.84143996  0.73457529  0.70106757    -0.03100
C1014       C  0.85791777  0.72795295  0.72015153    -0.18200
H1015       H  0.93653295  0.74473412  0.83504282     0.10900
H1016       H  0.90801802  0.75407667  0.80058307     0.10900
H1017       H  0.89813866  0.67528505  0.78752108     0.10600
H1018       H  0.92655753  0.66625225  0.82192601     0.11700
H1019       H  0.88684848  0.74022815  0.76172412     0.11800
H1020       H  0.86190681  0.68990355  0.77126153     0.13700
H1021       H  0.81742885  0.69684015  0.75775572     0.10200
H1022       H  0.78849607  0.70904467  0.72498201     0.12300
H1023       H  0.84836471  0.74508724  0.68533428     0.08900
H1024       H  0.87730206  0.73316073  0.71854468     0.11700
C1025       C  0.71632223  0.82005306  0.70274481    -0.02900
C1026       C  0.70807812  0.84389703  0.69593516    -0.05500
C1027       C  0.69953387  0.86062935  0.71402313    -0.20600
C1028       C  0.69933652  0.85405916  0.73931151     0.25100
C1029       C  0.70702650  0.82998801  0.74608049    -0.18200
C1030       C  0.71549350  0.81324250  0.72801093    -0.08200
C1031       C  0.69104058  0.87276529  0.75801157    -0.18400
C1032       C  0.69858285  0.87250500  0.78194513    -0.23200
C1033       C  0.69220804  0.89218591  0.80036603     0.27200
C1034       C  0.70780259  0.89542624  0.82110126    -0.20000
C1035       C  0.70280933  0.91385869  0.83879202    -0.09600
C1036       C  0.68192964  0.92921873  0.83622155    -0.10200
C1037       C  0.66606528  0.92588766  0.81575562    -0.03100
C1038       C  0.67107584  0.90746421  0.79798457    -0.18200
H1039       H  0.70825638  0.84967045  0.67662601     0.10900
H1040       H  0.69345369  0.87894736  0.70827584     0.10900
H1041       H  0.70633761  0.82385826  0.76524018     0.10600
H1042       H  0.72147541  0.79494416  0.73389572     0.11700
H1043       H  0.67999086  0.88822557  0.75128112     0.11800
H1044       H  0.71153139  0.85829341  0.78800890     0.13700
H1045       H  0.72410395  0.88385007  0.82345536     0.10200
H1046       H  0.71528334  0.91626000  0.85445646     0.12300
H1047       H  0.64979311  0.93754233  0.81361725     0.08900
H1048       H  0.65820619  0.90509505  0.78269094     0.11700
C1049       C  0.71970474  0.18592770  0.71909441    -0.02900
C1050       C  0.73944522  0.17335082  0.73070742    -0.05500
C1051       C  0.73485051  0.15486992  0.74829335    -0.20600
C1052       C  0.71044879  0.14831154  0.75471514     0.25100
C1053       C  0.69057975  0.16116578  0.74350624    -0.18200
C1054       C  0.69519511  0.17976268  0.72581480    -0.08200
C1055       C  0.70687396  0.12863721  0.77380677    -0.18400
C1056       C  0.68564400  0.11568215  0.77702547    -0.23200
C1057       C  0.68265915  0.09613417  0.79643220     0.27200
C1058       C  0.66361831  0.07837148  0.79378495    -0.20000
C1059       C  0.66002311  0.05997194  0.81185830    -0.09600
C1060       C  0.67535087  0.05911622  0.83297433    -0.10200
C1061       C  0.69430963  0.07683666  0.83573907    -0.03100
C1062       C  0.69782599  0.09527812  0.81781705    -0.18200
H1063       H  0.75858096  0.17766901  0.72613760     0.10900
H1064       H  0.75050904  0.14550689  0.75680532     0.10900
H1065       H  0.67151043  0.15724365  0.74853572     0.10600
H1066       H  0.67959499  0.18930724  0.71743202     0.11700
H1067       H  0.72304363  0.12395079  0.78488927     0.11800
H1068       H  0.67014179  0.11870395  0.76447947     0.13700
H1069       H  0.65154291  0.07869048  0.77764544     0.10200
H1070       H  0.64527201  0.04643826  0.80944487     0.12300
H1071       H  0.70628240  0.07647455  0.85195677     0.08900
H1072       H  0.71213599  0.10901645  0.82117093     0.11700
C1073       C  0.94072209  0.31175027  0.82919267    -0.02900
C1074       C  0.94527828  0.29418567  0.81034856    -0.05500
C1075       C  0.92765028  0.28983712  0.79177637    -0.20600
C1076       C  0.90504721  0.30286653  0.79165515     0.25100
C1077       C  0.90067137  0.32085306  0.81030662    -0.18200
C1078       C  0.91848067  0.32539077  0.82874814    -0.08200
C1079       C  0.88608340  0.29580464  0.77280660    -0.18400
C1080       C  0.86590067  0.30953527  0.76728931    -0.23200
C1081       C  0.84672579  0.30104893  0.74928641     0.27200
C1082       C  0.83223189  0.31877215  0.73680257    -0.20000
C1083       C  0.81405170  0.31129426  0.71970216    -0.09600
C1084       C  0.80988822  0.28588479  0.71498423    -0.10200
C1085       C  0.82401194  0.26816706  0.72795964    -0.03100
C1086       C  0.84212249  0.27562668  0.74497899    -0.18200
H1087       H  0.96226332  0.28337306  0.81039029     0.10900
H1088       H  0.93148521  0.27583676  0.77772407     0.10900
H1089       H  0.88332002  0.33091666  0.81132521     0.10600
H1090       H  0.91462039  0.33903874  0.84312942     0.11700
H1091       H  0.88924082  0.27853894  0.76273697     0.11800
H1092       H  0.86361595  0.32789753  0.77539659     0.13700
H1093       H  0.83517218  0.33845786  0.74009940     0.10200
H1094       H  0.80331044  0.32539001  0.71017872     0.12300
H1095       H  0.82104357  0.24842785  0.72505807     0.08900
H1096       H  0.85214292  0.26137186  0.75499172     0.11700
C1097       C  0.06764108  0.30754923  0.83257008    -0.02900
C1098       C  0.06319756  0.28984891  0.81383408    -0.05500
C1099       C  0.08095224  0.28538329  0.79539330    -0.20600
C1100       C  0.10366984  0.29828669  0.79538583     0.25100
C1101       C  0.10800934  0.31632908  0.81400110    -0.18200
C1102       C  0.09010647  0.32089968  0.83241994    -0.08200
C1103       C  0.12176559  0.29273542  0.77515943    -0.18400
C1104       C  0.14631168  0.29777233  0.77634818    -0.23200
C1105       C  0.16404919  0.29122862  0.75600161     0.27200
C1106       C  0.18948876  0.28922209  0.76151936    -0.20000
C1107       C  0.20657789  0.28234310  0.74305302    -0.09600
C1108       C  0.19859506  0.27743165  0.71856254    -0.10200
C1109       C  0.17326859  0.28026285  0.71286431    -0.03100
C1110       C  0.15623236  0.28719593  0.73127204    -0.18200
H1111       H  0.04599732  0.27933671  0.81361749     0.10900
H1112       H  0.07700903  0.27156522  0.78118738     0.10900
H1113       H  0.12493089  0.32720803  0.81424358     0.10600
H1114       H  0.09374527  0.33483689  0.84658374     0.11700
H1115       H  0.11450846  0.28276063  0.75914481     0.11800
H1116       H  0.15403528  0.30570159  0.79327567     0.13700
H1117       H  0.19612331  0.29258904  0.78028497     0.10200
H1118       H  0.22600296  0.28062615  0.74804490     0.12300
H1119       H  0.16651040  0.27699520  0.69413600     0.08900
H1120       H  0.13703792  0.28955745  0.72584543     0.11700
C1121       C  0.29424228  0.17983362  0.71202687    -0.02900
C1122       C  0.29900611  0.15530699  0.70420813    -0.05500
C1123       C  0.30606933  0.13718220  0.72141915    -0.20600
C1124       C  0.30838195  0.14309478  0.74680077     0.25100
C1125       C  0.30440906  0.16785219  0.75449457    -0.18200
C1126       C  0.29729007  0.18594012  0.73731735    -0.08200
C1127       C  0.31484110  0.12293662  0.76455044    -0.18400
C1128       C  0.31009142  0.12429012  0.78915622    -0.23200
C1129       C  0.31445371  0.10352786  0.80678242     0.27200
C1130       C  0.30135762  0.10363336  0.82939965    -0.20000
C1131       C  0.30416718  0.08425204  0.84636089    -0.09600
C1132       C  0.32033161  0.06446507  0.84115149    -0.10200
C1133       C  0.33396941  0.06450088  0.81887163    -0.03100
C1134       C  0.33113704  0.08391686  0.80180872    -0.18200
H1135       H  0.29703020  0.15002005  0.68482466     0.10900
H1136       H  0.30930070  0.11834699  0.71493009     0.10900
H1137       H  0.30690145  0.17352887  0.77366423     0.10600
H1138       H  0.29402370  0.20471646  0.74393543     0.11700
H1139       H  0.32206899  0.10579446  0.75667592     0.11800
H1140       H  0.30084529  0.14058891  0.79666483     0.13700
H1141       H  0.28858075  0.11858814  0.83380521     0.10200
H1142       H  0.29355616  0.08454611  0.86352146     0.12300
H1143       H  0.34678483  0.04950651  0.81474963     0.08900
H1144       H  0.34220929  0.08354540  0.78499894     0.11700
C1145       C  0.30869539  0.93491394  0.84062662    -0.02900
C1146       C  0.28867639  0.91843402  0.84328079    -0.05500
C1147       C  0.28465327  0.89980320  0.82564147    -0.20600
C1148       C  0.30030076  0.89758911  0.80484665     0.25100
C1149       C  0.32048378  0.91408738  0.80223595    -0.18200
C1150       C  0.32459708  0.93266546  0.82002845    -0.08200
C1151       C  0.29504229  0.87758191  0.78662785    -0.18400
C1152       C  0.30168070  0.87870137  0.76249629    -0.23200
C1153       C  0.29429123  0.85932044  0.74425616     0.27200
C1154       C  0.29157327  0.86582037  0.71911017    -0.20000
C1155       C  0.28351970  0.84820892  0.70164913    -0.09600
C1156       C  0.27830424  0.82368711  0.70905243    -0.10200
C1157       C  0.28173383  0.81706159  0.73412267    -0.03100
C1158       C  0.28974884  0.83460984  0.75150207    -0.18200
H1159       H  0.27621582  0.92000947  0.85906990     0.10900
H1160       H  0.26908254  0.88723571  0.82809860     0.10900
H1161       H  0.33332517  0.91247136  0.78680145     0.10600
H1162       H  0.34025027  0.94518506  0.81787810     0.11700
H1163       H  0.28351507  0.86229375  0.79304364     0.11800
H1164       H  0.31102711  0.89514582  0.75542929     0.13700
H1165       H  0.29521731  0.88469292  0.71305923     0.10200
H1166       H  0.28124946  0.85382846  0.68242962     0.12300
H1167       H  0.27811906  0.79827304  0.74042687     0.08900
H1168       H  0.29252512  0.82863034  0.77052059     0.11700
C1169       C  0.42906543  0.82798441  0.33013457    -0.02900
C1170       C  0.40746832  0.84259850  0.32981299    -0.05500
C1171       C  0.38905807  0.83833732  0.31190319    -0.20600
C1172       C  0.39180131  0.81922461  0.29423036     0.25100
C1173       C  0.41371072  0.80491012  0.29431159    -0.18200
C1174       C  0.43206136  0.80915306  0.31221750    -0.08200
C1175       C  0.37160484  0.81470173  0.27592374    -0.18400
C1176       C  0.36701045  0.79196383  0.26640183    -0.23200
C1177       C  0.34650070  0.78634703  0.24878878     0.27200
C1178       C  0.33817051  0.76168625  0.24704361    -0.20000
C1179       C  0.31973814  0.75506641  0.23003432    -0.09600
C1180       C  0.30927797  0.77295684  0.21413188    -0.10200
C1181       C  0.31736238  0.79778046  0.21600782    -0.03100
C1182       C  0.33588915  0.80443110  0.23312392    -0.18200
H1183       H  0.40486881  0.85722374  0.34349838     0.10900
H1184       H  0.37244421  0.84970976  0.31210331     0.10900
H1185       H  0.41685077  0.79056118  0.28047969     0.10600
H1186       H  0.44862760  0.79770758  0.31216186     0.11700
H1187       H  0.35929984  0.83008062  0.27159172     0.11800
H1188       H  0.37795071  0.77627002  0.27281966     0.13700
H1189       H  0.34604232  0.74740502  0.25885380     0.10200
H1190       H  0.31385226  0.73579624  0.22922594     0.12300
H1191       H  0.30973848  0.81195511  0.20393036     0.08900
H1192       H  0.34225435  0.82352921  0.23351838     0.11700
C1193       C  0.21484625  0.67883234  0.21893797    -0.02900
C1194       C  0.23328231  0.66508785  0.23131868    -0.05500
C1195       C  0.22701880  0.64907880  0.25075044    -0.20600
C1196       C  0.20219290  0.64620350  0.25824018     0.25100
C1197       C  0.18366454  0.66004340  0.24600378    -0.18200
C1198       C  0.18995270  0.67614051  0.22649575    -0.08200
C1199       C  0.19680695  0.62907300  0.27926447    -0.18400
C1200       C  0.17432647  0.61899824  0.28400825    -0.23200
C1201       C  0.17028235  0.60064572  0.30433019     0.27200
C1202       C  0.15100800  0.58307645  0.30210777    -0.20000
C1203       C  0.14797267  0.56440852  0.32003309    -0.09600
C1204       C  0.16405380  0.56323107  0.34057528    -0.10200
C1205       C  0.18245743  0.58149853  0.34348806    -0.03100
C1206       C  0.18549499  0.60009320  0.32565800    -0.18200
H1207       H  0.25266456  0.66676452  0.22610252     0.10900
H1208       H  0.24169329  0.63880806  0.25993967     0.10900
H1209       H  0.16440485  0.65891327  0.25166254     0.10600
H1210       H  0.17535137  0.68669060  0.21753932     0.11700
H1211       H  0.21263114  0.62334416  0.29038104     0.11800
H1212       H  0.15885304  0.62273317  0.27162810     0.13700
H1213       H  0.13879044  0.58332369  0.28607527     0.10200
H1214       H  0.13352734  0.55055158  0.31761148     0.12300
H1215       H  0.19487978  0.58099227  0.35935976     0.08900
H1216       H  0.19985595  0.61388415  0.32865364     0.11700
C1217       C  0.44574280  0.56533980  0.09810812    -0.02900
C1218       C  0.43743204  0.56890454  0.12258122    -0.05500
C1219       C  0.41828962  0.58567431  0.12767500    -0.20600
C1220       C  0.40681505  0.59902800  0.10839327     0.25100
C1221       C  0.41541728  0.59564090  0.08378705    -0.18200
C1222       C  0.43476127  0.57887108  0.07871982    -0.08200
C1223       C  0.38655842  0.61666762  0.11517986    -0.18400
C1224       C  0.36902591  0.62505457  0.09930001    -0.23200
C1225       C  0.34864488  0.64235621  0.10694738     0.27200
C1226       C  0.33601376  0.65599297  0.08858133    -0.20000
C1227       C  0.31712190  0.67278295  0.09508607    -0.09600
C1228       C  0.31035242  0.67624057  0.12016997    -0.10200
C1229       C  0.32254511  0.66211151  0.13846086    -0.03100
C1230       C  0.34126611  0.64528672  0.13197194    -0.18200
H1231       H  0.44558479  0.55839621  0.13770109     0.10900
H1232       H  0.41215928  0.58796057  0.14677494     0.10900
H1233       H  0.40752440  0.60599596  0.06848235     0.10600
H1234       H  0.44093249  0.57616644  0.05969459     0.11700
H1235       H  0.38609779  0.62257830  0.13449080     0.11800
H1236       H  0.36960214  0.61936375  0.07990155     0.13700
H1237       H  0.34101184  0.65390242  0.06913427     0.10200
H1238       H  0.30802467  0.68324336  0.08049751     0.12300
H1239       H  0.31758277  0.66397761  0.15793420     0.08900
H1240       H  0.34955429  0.63448784  0.14672932     0.11700
C1241       C  0.27286181  0.80539617  0.08199084    -0.02900
C1242       C  0.28364516  0.79748700  0.05943919    -0.05500
C1243       C  0.29172900  0.81489409  0.04181052    -0.20600
C1244       C  0.28862512  0.84049195  0.04606629     0.25100
C1245       C  0.27771741  0.84840326  0.06854821    -0.18200
C1246       C  0.27001240  0.83105636  0.08632339    -0.08200
C1247       C  0.29742018  0.85862132  0.02712733    -0.18400
C1248       C  0.28552610  0.88023068  0.02288594    -0.23200
C1249       C  0.29340114  0.89847574  0.00371157     0.27200
C1250       C  0.27514563  0.91302853  0.99210874    -0.20000
C1251       C  0.28174901  0.93095770  0.97450868    -0.09600
C1252       C  0.30678935  0.93499642  0.96852570    -0.10200
C1253       C  0.32520258  0.92074359  0.98025336    -0.03100
C1254       C  0.31856882  0.90249377  0.99765996    -0.18200
H1255       H  0.28619979  0.77785816  0.05558644     0.10900
H1256       H  0.30021164  0.80835507  0.02469443     0.10900
H1257       H  0.27557354  0.86801874  0.07266613     0.10600
H1258       H  0.26178335  0.83776871  0.10349104     0.11700
H1259       H  0.31309258  0.85339579  0.01546735     0.11800
H1260       H  0.26835942  0.88410710  0.03283485     0.13700
H1261       H  0.25567846  0.91039417  0.99658114     0.10200
H1262       H  0.26733729  0.94183963  0.96562592     0.12300
H1263       H  0.34463604  0.92378730  0.97591995     0.08900
H1264       H  0.33310932  0.89198267  0.00673951     0.11700
C1265       C  0.06005153  0.68126736  0.95991182    -0.02900
C1266       C  0.07892787  0.69880458  0.95582615    -0.05500
C1267       C  0.09844837  0.70133061  0.97268552    -0.20600
C1268       C  0.09944007  0.68661518  0.99419941     0.25100
C1269       C  0.08065239  0.66873976  0.99820799    -0.18200
C1270       C  0.06112379  0.66608779  0.98112803    -0.08200
C1271       C  0.12053081  0.69068403  0.01159432    -0.18400
C1272       C  0.12044975  0.68396779  0.03574648    -0.23200
C1273       C  0.14072283  0.69089412  0.05331713     0.27200
C1274       C  0.13548225  0.69176323  0.07892101    -0.20000
C1275       C  0.15350765  0.69973986  0.09593213    -0.09600
C1276       C  0.17730469  0.70679497  0.08769701    -0.10200
C1277       C  0.18285826  0.70504902  0.06217549    -0.03100
C1278       C  0.16485700  0.69707101  0.04518608    -0.18200
H1279       H  0.07845220  0.71067004  0.93955071     0.10900
H1280       H  0.11269867  0.71511963  0.96904027     0.10900
H1281       H  0.08107170  0.65657201  0.01420182     0.10600
H1282       H  0.04686783  0.65222505  0.98441335     0.11700
H1283       H  0.13595849  0.70153778  0.00445356     0.11800
H1284       H  0.10415344  0.67496839  0.04353066     0.13700
H1285       H  0.11718124  0.68680531  0.08574636     0.10200
H1286       H  0.14871269  0.70058254  0.11551378     0.12300
H1287       H  0.20108208  0.71010492  0.05523446     0.08900
H1288       H  0.17008594  0.69573544  0.02578359     0.11700
C1289       C  0.78491061  0.68278499  0.21461331    -0.02900
C1290       C  0.78717808  0.65843920  0.20524606    -0.05500
C1291       C  0.79529152  0.63917351  0.22053220    -0.20600
C1292       C  0.80151266  0.64371425  0.24548857     0.25100
C1293       C  0.79939282  0.66810116  0.25495396    -0.18200
C1294       C  0.79119716  0.68744529  0.23961975    -0.08200
C1295       C  0.80822183  0.62211773  0.26124432    -0.18400
C1296       C  0.81977219  0.62385926  0.28340665    -0.23200
C1297       C  0.82371329  0.60193342  0.29967836     0.27200
C1298       C  0.84290731  0.60246462  0.31738036    -0.20000
C1299       C  0.84595154  0.58275526  0.33404845    -0.09600
C1300       C  0.82956261  0.56239683  0.33351787    -0.10200
C1301       C  0.81058416  0.56166634  0.31567551    -0.03100
C1302       C  0.80761613  0.58123808  0.29895060    -0.18200
H1303       H  0.78241914  0.65413878  0.18610904     0.10900
H1304       H  0.79650221  0.62054184  0.21284509     0.10900
H1305       H  0.80332034  0.67227073  0.27427306     0.10600
H1306       H  0.78953983  0.70598047  0.24742659     0.11700
H1307       H  0.80352322  0.60383283  0.25397359     0.11800
H1308       H  0.82678588  0.64169184  0.28985291     0.13700
H1309       H  0.85537675  0.61827812  0.31848218     0.10200
H1310       H  0.86064156  0.58364984  0.34781842     0.12300
H1311       H  0.79755468  0.54627731  0.31525470     0.08900
H1312       H  0.79205708  0.58047830  0.28622145     0.11700
C1313       C  0.68492413  0.77864309  0.22108236    -0.02900
C1314       C  0.68740269  0.77139258  0.24609180    -0.05500
C1315       C  0.66876304  0.77692299  0.26340791    -0.20600
C1316       C  0.64757792  0.79029618  0.25622951     0.25100
C1317       C  0.64510722  0.79766585  0.23124208    -0.18200
C1318       C  0.66354192  0.79177098  0.21382959    -0.08200
C1319       C  0.62784946  0.79519689  0.27489639    -0.18400
C1320       C  0.61301684  0.81533233  0.27408933    -0.23200
C1321       C  0.59329171  0.81990948  0.29282072     0.27200
C1322       C  0.58742200  0.84448798  0.29955281    -0.20000
C1323       C  0.56921063  0.84926952  0.31754250    -0.09600
C1324       C  0.55632640  0.82951802  0.32861933    -0.10200
C1325       C  0.56152277  0.80499391  0.32135736    -0.03100
C1326       C  0.57991789  0.80018407  0.30363836    -0.18200
H1327       H  0.70353408  0.76101917  0.25217689     0.10900
H1328       H  0.67093132  0.77082003  0.28250122     0.10900
H1329       H  0.62868397  0.80741881  0.22495926     0.10600
H1330       H  0.66105914  0.79750159  0.19466666     0.11700
H1331       H  0.62627604  0.78236826  0.29042595     0.11800
H1332       H  0.61625846  0.82956774  0.26013572     0.13700
H1333       H  0.59730528  0.85995655  0.29124288     0.10200
H1334       H  0.56526508  0.86829237  0.32296671     0.12300
H1335       H  0.55152333  0.78960266  0.32968166     0.08900
H1336       H  0.58347946  0.78108292  0.29826698     0.11700
C1337       C  0.57599118  0.55904248  0.09000899    -0.02900
C1338       C  0.59276400  0.55707436  0.10990707    -0.05500
C1339       C  0.61247531  0.57382667  0.11219783    -0.20600
C1340       C  0.61550689  0.59313573  0.09493277     0.25100
C1341       C  0.59884988  0.59494220  0.07479426    -0.18200
C1342       C  0.57922102  0.57798236  0.07237396    -0.08200
C1343       C  0.63611040  0.61108985  0.09873279    -0.18400
C1344       C  0.63446640  0.63523382  0.09234497    -0.23200
C1345       C  0.65352822  0.65383877  0.09969953     0.27200
C1346       C  0.64606184  0.67833441  0.10480733    -0.20000
C1347       C  0.66319656  0.69593461  0.11349619    -0.09600
C1348       C  0.68827728  0.68944467  0.11694838    -0.10200
C1349       C  0.69591387  0.66513802  0.11083238    -0.03100
C1350       C  0.67875072  0.64752888  0.10227839    -0.18200
H1351       H  0.59050173  0.54256559  0.12369694     0.10900
H1352       H  0.62510537  0.57201907  0.12780178     0.10900
H1353       H  0.60107352  0.60925588  0.06082888     0.10600
H1354       H  0.56653860  0.57959350  0.05679886     0.11700
H1355       H  0.65197157  0.60479504  0.10951310     0.11800
H1356       H  0.61747283  0.64209168  0.08389333     0.13700
H1357       H  0.62675737  0.68367856  0.10276154     0.10200
H1358       H  0.65670509  0.71451612  0.11784588     0.12300
H1359       H  0.71514273  0.65958314  0.11292893     0.08900
H1360       H  0.68527650  0.62901413  0.09773813     0.11700
C1361       C  0.82060138  0.72807987  0.09069969    -0.02900
C1362       C  0.83760579  0.74652007  0.08333865    -0.05500
C1363       C  0.85454966  0.74192983  0.06421558    -0.20600
C1364       C  0.85499964  0.71882286  0.05200789     0.25100
C1365       C  0.83832631  0.70011085  0.05968427    -0.18200
C1366       C  0.82139699  0.70468379  0.07896289    -0.08200
C1367       C  0.87214762  0.71576315  0.03054870    -0.18400
C1368       C  0.87858608  0.69368640  0.02054864    -0.23200
C1369       C  0.89566527  0.69167497  0.99892534     0.27200
C1370       C  0.90999141  0.67004665  0.99598584    -0.20000
C1371       C  0.92709492  0.66810322  0.97647002    -0.09600
C1372       C  0.92991674  0.68769118  0.95947706    -0.10200
C1373       C  0.91492930  0.70887345  0.96172759    -0.03100
C1374       C  0.89783295  0.71082392  0.98118524    -0.18200
H1375       H  0.83756875  0.76471931  0.09207383     0.10900
H1376       H  0.86713448  0.75667676  0.05867941     0.10900
H1377       H  0.83762044  0.68223453  0.05042542     0.10600
H1378       H  0.80839795  0.69017246  0.08411004     0.11700
H1379       H  0.88042155  0.73264171  0.02316482     0.11800
H1380       H  0.87240356  0.67651307  0.02912727     0.13700
H1381       H  0.90841169  0.65492162  0.00919178     0.10200
H1382       H  0.93852974  0.65159159  0.97489613     0.12300
H1383       H  0.91684192  0.72409223  0.94867247     0.08900
H1384       H  0.88639642  0.72733750  0.98222295     0.11700
C1385       C  0.72534882  0.81971841  0.09066259    -0.02900
C1386       C  0.74441724  0.83324038  0.07893464    -0.05500
C1387       C  0.73897084  0.85033420  0.06023235    -0.20600
C1388       C  0.71435438  0.85448036  0.05270160     0.25100
C1389       C  0.69515690  0.84102595  0.06450476    -0.18200
C1390       C  0.70063372  0.82389521  0.08334688    -0.08200
C1391       C  0.71002655  0.87225968  0.03190096    -0.18400
C1392       C  0.68754813  0.88091229  0.02498734    -0.23200
C1393       C  0.68370871  0.89839690  0.00382288     0.27200
C1394       C  0.66106919  0.91135394  0.00226482    -0.20000
C1395       C  0.65667595  0.92808549  0.98283897    -0.09600
C1396       C  0.67478652  0.93197825  0.96447222    -0.10200
C1397       C  0.69719613  0.91876129  0.96559648    -0.03100
C1398       C  0.70162315  0.90204402  0.98497631    -0.18200
H1399       H  0.76369578  0.83050101  0.08403822     0.10900
H1400       H  0.75416873  0.86026793  0.05147488     0.10900
H1401       H  0.67595286  0.84312793  0.05906311     0.10600
H1402       H  0.68554121  0.81366355  0.09191541     0.11700
H1403       H  0.72647452  0.87891528  0.02232701     0.11800
H1404       H  0.67120097  0.87580688  0.03561218     0.13700
H1405       H  0.64683921  0.90875222  0.01631013     0.10200
H1406       H  0.63928266  0.93819871  0.98224041     0.12300
H1407       H  0.71136926  0.92160510  0.95153783     0.08900
H1408       H  0.71897429  0.89194804  0.98479327     0.11700
C1409       C  0.68345101  0.20737328  0.20536080    -0.02900
C1410       C  0.66024672  0.19990335  0.19580889    -0.05500
C1411       C  0.64146559  0.19169173  0.21185948    -0.20600
C1412       C  0.64547541  0.19109973  0.23766906     0.25100
C1413       C  0.66900821  0.19760328  0.24705297    -0.18200
C1414       C  0.68770323  0.20575610  0.23110163    -0.08200
C1415       C  0.62497081  0.18364621  0.25450863    -0.18400
C1416       C  0.62329429  0.19258364  0.27789469    -0.23200
C1417       C  0.60352179  0.18578740  0.29581273     0.27200
C1418       C  0.60004832  0.20120639  0.31666822    -0.20000
C1419       C  0.58219504  0.19540286  0.33452311    -0.09600
C1420       C  0.56761126  0.17394150  0.33193970    -0.10200
C1421       C  0.57102943  0.15831778  0.31126234    -0.03100
C1422       C  0.58894584  0.16411898  0.29331532    -0.18200
H1423       H  0.65650749  0.20065670  0.17600338     0.10900
H1424       H  0.62360382  0.18636680  0.20418196     0.10900
H1425       H  0.67314508  0.19633819  0.26673074     0.10600
H1426       H  0.70545074  0.21104319  0.23904532     0.11700
H1427       H  0.61047542  0.17173763  0.24701312     0.11800
H1428       H  0.63664035  0.20644739  0.28412176     0.13700
H1429       H  0.61114303  0.21788014  0.31911967     0.10200
H1430       H  0.57964363  0.20769446  0.35035731     0.12300
H1431       H  0.55989724  0.14163277  0.30913200     0.08900
H1432       H  0.59153958  0.15139533  0.27789448     0.11700
C1433       C  0.78149006  0.30791520  0.21469798    -0.02900
C1434       C  0.77323293  0.30510888  0.23937881    -0.05500
C1435       C  0.77886623  0.32303834  0.25740928    -0.20600
C1436       C  0.79331103  0.34391728  0.25138603     0.25100
C1437       C  0.80210025  0.34654459  0.22683465    -0.18200
C1438       C  0.79609117  0.32876988  0.20862253    -0.08200
C1439       C  0.79711792  0.36338734  0.27070594    -0.18400
C1440       C  0.81702145  0.37858477  0.27162509    -0.23200
C1441       C  0.81963627  0.39791543  0.29130844     0.27200
C1442       C  0.84313396  0.40307017  0.30151289    -0.20000
C1443       C  0.84573273  0.42074830  0.32060339    -0.09600
C1444       C  0.82492601  0.43387051  0.32934364    -0.10200
C1445       C  0.80158218  0.42929706  0.31867284    -0.03100
C1446       C  0.79892068  0.41144449  0.29986393    -0.18200
H1447       H  0.76186592  0.28932810  0.24466135     0.10900
H1448       H  0.77174590  0.32067988  0.27614143     0.10900
H1449       H  0.81286599  0.36269123  0.22146450     0.10600
H1450       H  0.80274213  0.33141811  0.18976772     0.11700
H1451       H  0.78328202  0.36459935  0.28542380     0.11800
H1452       H  0.83227558  0.37595383  0.25862040     0.13700
H1453       H  0.85937213  0.39302986  0.29506618     0.10200
H1454       H  0.86389701  0.42416726  0.32861610     0.12300
H1455       H  0.78539944  0.43944971  0.32508341     0.08900
H1456       H  0.78068950  0.40837698  0.29187723     0.11700
C1457       C  0.56983886  0.43186777  0.09801366    -0.02900
C1458       C  0.57671964  0.42528031  0.12229340    -0.05500
C1459       C  0.59359368  0.40602311  0.12625403    -0.20600
C1460       C  0.60443111  0.39355625  0.10601462     0.25100
C1461       C  0.59782398  0.40039148  0.08161730    -0.18200
C1462       C  0.58048668  0.41936683  0.07766507    -0.08200
C1463       C  0.62170909  0.37283620  0.11108746    -0.18400
C1464       C  0.64148209  0.36771547  0.09664123    -0.23200
C1465       C  0.65901544  0.34742065  0.10277376     0.27200
C1466       C  0.68429833  0.35005262  0.09689153    -0.20000
C1467       C  0.70129814  0.33150319  0.10341075    -0.09600
C1468       C  0.69312498  0.30977825  0.11540509    -0.10200
C1469       C  0.66768852  0.30681030  0.12050317    -0.03100
C1470       C  0.65081016  0.32545591  0.11433231    -0.18200
H1471       H  0.56861978  0.43478538  0.13816214     0.10900
H1472       H  0.59832708  0.40092984  0.14517833     0.10900
H1473       H  0.60552531  0.39068895  0.06568488     0.10600
H1474       H  0.57522597  0.42420955  0.05882074     0.11700
H1475       H  0.61895958  0.36255678  0.12827030     0.11800
H1476       H  0.64582608  0.37967954  0.08094709     0.13700
H1477       H  0.69096336  0.36672317  0.08774769     0.10200
H1478       H  0.72079079  0.33412914  0.09906793     0.12300
H1479       H  0.66085884  0.29023414  0.12969678     0.08900
H1480       H  0.63132586  0.32254692  0.11846891     0.11700
C1481       C  0.67180881  0.06192710  0.96024974    -0.02900
C1482       C  0.65489154  0.06615930  0.97966578    -0.05500
C1483       C  0.65948232  0.08493499  0.99716728    -0.20600
C1484       C  0.68109690  0.09955502  0.99556797     0.25100
C1485       C  0.69763673  0.09559932  0.97560305    -0.18200
C1486       C  0.69310092  0.07681127  0.95826380    -0.08200
C1487       C  0.68579727  0.11877274  0.01489329    -0.18400
C1488       C  0.70878402  0.12715467  0.02022964    -0.23200
C1489       C  0.71433371  0.14543351  0.04017475     0.27200
C1490       C  0.73874231  0.14669506  0.04923436    -0.20000
C1491       C  0.74498834  0.16330013  0.06821576    -0.09600
C1492       C  0.72693892  0.17917425  0.07848781    -0.10200
C1493       C  0.70257869  0.17836696  0.06905116    -0.03100
C1494       C  0.69632151  0.16171580  0.05000349    -0.18200
H1495       H  0.63833513  0.05479266  0.98134514     0.10900
H1496       H  0.64634999  0.08778569  0.01221342     0.10900
H1497       H  0.71398462  0.10703917  0.97306748     0.10600
H1498       H  0.70625369  0.07377709  0.94326457     0.11700
H1499       H  0.67006191  0.12488540  0.02596788     0.11800
H1500       H  0.72466864  0.11916104  0.01067391     0.13700
H1501       H  0.75302684  0.13457403  0.04177348     0.10200
H1502       H  0.76398791  0.16361961  0.07487471     0.12300
H1503       H  0.68834454  0.19063732  0.07633246     0.08900
H1504       H  0.67751100  0.16194737  0.04292514     0.11700
C1505       C  0.82211619  0.26592962  0.08343966    -0.02900
C1506       C  0.83247215  0.24657910  0.06916285    -0.05500
C1507       C  0.84975672  0.25171360  0.05052934    -0.20600
C1508       C  0.85715872  0.27625825  0.04567550     0.25100
C1509       C  0.84691806  0.29569306  0.06005775    -0.18200
C1510       C  0.82946020  0.29054753  0.07866147    -0.08200
C1511       C  0.87625495  0.28033941  0.02614251    -0.18400
C1512       C  0.88206086  0.30267084  0.01642569    -0.23200
C1513       C  0.90157747  0.30575236  0.99715001     0.27200
C1514       C  0.90026366  0.32611864  0.98087097    -0.20000
C1515       C  0.91811224  0.32926515  0.96219949    -0.09600
C1516       C  0.93767109  0.31222234  0.95979079    -0.10200
C1517       C  0.93944105  0.29224916  0.97639530    -0.03100
C1518       C  0.92164618  0.28906958  0.99500033    -0.18200
H1519       H  0.82714157  0.22739181  0.07226728     0.10900
H1520       H  0.85740295  0.23637435  0.03985482     0.10900
H1521       H  0.85249870  0.31482550  0.05744227     0.10600
H1522       H  0.82186655  0.30583479  0.08942519     0.11700
H1523       H  0.88543122  0.26384271  0.01892802     0.11800
H1524       H  0.87160244  0.31908878  0.02170553     0.13700
H1525       H  0.88520859  0.33940870  0.98239659     0.10200
H1526       H  0.91670699  0.34492633  0.94962744     0.12300
H1527       H  0.95464200  0.27911571  0.97489280     0.08900
H1528       H  0.92392940  0.27374074  0.00780060     0.11700
C1529       C  0.21690206  0.31345824  0.21396519    -0.02900
C1530       C  0.19139911  0.31664715  0.21870334    -0.05500
C1531       C  0.18330789  0.33449306  0.23594333    -0.20600
C1532       C  0.20050330  0.34934546  0.24891044     0.25100
C1533       C  0.22598647  0.34649280  0.24373677    -0.18200
C1534       C  0.23405726  0.32868381  0.22660258    -0.08200
C1535       C  0.19129239  0.36817004  0.26704682    -0.18400
C1536       C  0.20525566  0.37664988  0.28613387    -0.23200
C1537       C  0.19745705  0.39619554  0.30424030     0.27200
C1538       C  0.21346544  0.40153110  0.32423255    -0.20000
C1539       C  0.20771716  0.42025856  0.34134233    -0.09600
C1540       C  0.18575220  0.43406635  0.33890939    -0.10200
C1541       C  0.16956366  0.42880001  0.31911462    -0.03100
C1542       C  0.17535621  0.41010236  0.30184750    -0.18200
H1543       H  0.17769971  0.30532195  0.20916584     0.10900
H1544       H  0.16356119  0.33655112  0.23933660     0.10900
H1545       H  0.23981082  0.35824041  0.25249021     0.10600
H1546       H  0.25382536  0.32698737  0.22315680     0.11700
H1547       H  0.17229976  0.37442971  0.26480451     0.11800
H1548       H  0.22353257  0.36863423  0.28901909     0.13700
H1549       H  0.23062032  0.39125371  0.32657078     0.10200
H1550       H  0.22043831  0.42404127  0.35653622     0.12300
H1551       H  0.15245872  0.43920415  0.31705004     0.08900
H1552       H  0.16254214  0.40699031  0.28668428     0.11700
C1553       C  0.31525046  0.21965517  0.21876695    -0.02900
C1554       C  0.32613655  0.23802482  0.23394188    -0.05500
C1555       C  0.34333776  0.23159427  0.25224858    -0.20600
C1556       C  0.35019936  0.20668387  0.25590592     0.25100
C1557       C  0.33898926  0.18816114  0.24100086    -0.18200
C1558       C  0.32175622  0.19463041  0.22258447    -0.08200
C1559       C  0.36883059  0.20123201  0.27565217    -0.18400
C1560       C  0.38031942  0.17916419  0.27868002    -0.23200
C1561       C  0.39966188  0.17489395  0.29800724     0.27200
C1562       C  0.41707716  0.15576247  0.29430647    -0.20000
C1563       C  0.43597053  0.15158299  0.31169160    -0.09600
C1564       C  0.43761846  0.16633246  0.33321769    -0.10200
C1565       C  0.41992810  0.18506971  0.33731172    -0.03100
C1566       C  0.40103692  0.18924916  0.31998269    -0.18200
H1567       H  0.32146984  0.25748333  0.23163832     0.10900
H1568       H  0.35146015  0.24625496  0.26352419     0.10900
H1569       H  0.34315947  0.16866959  0.24347339     0.10600
H1570       H  0.31353850  0.18001553  0.21133727     0.11700
H1571       H  0.37413338  0.21672967  0.28751860     0.11800
H1572       H  0.37671585  0.16402185  0.26579940     0.13700
H1573       H  0.41629567  0.14426864  0.27770838     0.10200
H1574       H  0.44941144  0.13696279  0.30831752     0.12300
H1575       H  0.42085413  0.19654109  0.35392336     0.08900
H1576       H  0.38749915  0.20354780  0.32407386     0.11700
C1577       C  0.31754789  0.31484852  0.12378525    -0.02900
C1578       C  0.32158239  0.32127038  0.09873872    -0.05500
C1579       C  0.33981343  0.33869705  0.09244339    -0.20600
C1580       C  0.35419459  0.35014470  0.11102562     0.25100
C1581       C  0.35045687  0.34336925  0.13603794    -0.18200
C1582       C  0.33224039  0.32602760  0.14233144    -0.08200
C1583       C  0.37357985  0.36829378  0.10366785    -0.18400
C1584       C  0.38160964  0.38644756  0.11905313    -0.23200
C1585       C  0.40183456  0.40432915  0.11311112     0.27200
C1586       C  0.40924342  0.42114144  0.13181434    -0.20000
C1587       C  0.42845407  0.43806557  0.12754747    -0.09600
C1588       C  0.44058783  0.43841887  0.10448671    -0.10200
C1589       C  0.43335595  0.42185340  0.08569343    -0.03100
C1590       C  0.41409247  0.40494930  0.08987532    -0.18200
H1591       H  0.31066832  0.31285186  0.08399857     0.10900
H1592       H  0.34258583  0.34338117  0.07302062     0.10900
H1593       H  0.36186560  0.35096876  0.15080704     0.10600
H1594       H  0.32986247  0.32120112  0.16176269     0.11700
H1595       H  0.38084348  0.36658978  0.08494028     0.11800
H1596       H  0.37295896  0.38842044  0.13722377     0.13700
H1597       H  0.40021280  0.42111220  0.14986274     0.10200
H1598       H  0.43392480  0.45085511  0.14219859     0.12300
H1599       H  0.44260075  0.42211687  0.06776025     0.08900
H1600       H  0.40912788  0.39262599  0.07477213     0.11700
C1601       C  0.06375800  0.30763361  0.96347607    -0.02900
C1602       C  0.05872113  0.28901879  0.98105032    -0.05500
C1603       C  0.07471703  0.28528845  0.00115974    -0.20600
C1604       C  0.09617334  0.29990810  0.00393569     0.25100
C1605       C  0.10102017  0.31882217  0.98645795    -0.18200
C1606       C  0.08494750  0.32258016  0.96634737    -0.08200
C1607       C  0.11287840  0.29499331  0.02535674    -0.18400
C1608       C  0.13741373  0.29987929  0.02483283    -0.23200
C1609       C  0.15456435  0.29290650  0.04527605     0.27200
C1610       C  0.17946403  0.28792009  0.03942058    -0.20000
C1611       C  0.19615185  0.28070758  0.05793837    -0.09600
C1612       C  0.18834024  0.27853166  0.08284700    -0.10200
C1613       C  0.16350484  0.28407433  0.08883737    -0.03100
C1614       C  0.14677779  0.29127229  0.07025605    -0.18200
H1615       H  0.04234856  0.27740084  0.97916156     0.10900
H1616       H  0.07047751  0.27073858  0.01443469     0.10900
H1617       H  0.11693833  0.33098797  0.98844069     0.10600
H1618       H  0.08886538  0.33728502  0.95315353     0.11700
H1619       H  0.10503275  0.28522904  0.04120808     0.11800
H1620       H  0.14569497  0.30734936  0.00798817     0.13700
H1621       H  0.18594514  0.28920746  0.02035067     0.10200
H1622       H  0.21515219  0.27662341  0.05265802     0.12300
H1623       H  0.15699640  0.28291366  0.10789441     0.08900
H1624       H  0.12789563  0.29576566  0.07555728     0.11700
C1625       C  0.28860093  0.18808492  0.08362479    -0.02900
C1626       C  0.29187536  0.19727246  0.05933069    -0.05500
C1627       C  0.29950801  0.18156559  0.04012912    -0.20600
C1628       C  0.30432292  0.15641121  0.04475807     0.25100
C1629       C  0.30144872  0.14718526  0.06912748    -0.18200
C1630       C  0.29373226  0.16293463  0.08840132    -0.08200
C1631       C  0.31028918  0.14010561  0.02333643    -0.18400
C1632       C  0.32174387  0.11803090  0.02559359    -0.23200
C1633       C  0.32477503  0.10051335  0.00447548     0.27200
C1634       C  0.34284471  0.08176531  0.00613027    -0.20000
C1635       C  0.34461674  0.06347404  0.98768173    -0.09600
C1636       C  0.32816591  0.06362169  0.96745733    -0.10200
C1637       C  0.31048287  0.08260356  0.96540734    -0.03100
C1638       C  0.30868752  0.10085539  0.98378233    -0.18200
H1639       H  0.28806061  0.21655568  0.05495945     0.10900
H1640       H  0.30135261  0.18904335  0.02149222     0.10900
H1641       H  0.30423582  0.12770723  0.07327683     0.10600
H1642       H  0.29124595  0.15528990  0.10688040     0.11700
H1643       H  0.30512369  0.14679075  0.00499913     0.11800
H1644       H  0.32917262  0.11243041  0.04351027     0.13700
H1645       H  0.35528412  0.08101075  0.02197237     0.10200
H1646       H  0.35832989  0.04884491  0.98946232     0.12300
H1647       H  0.29749999  0.08274907  0.94997828     0.08900
H1648       H  0.29396106  0.11442557  0.98215931     0.11700
C1649       C  0.07050605  0.93888949  0.22464886    -0.02900
C1650       C  0.08515712  0.94229461  0.20325908    -0.05500
C1651       C  0.10433923  0.92569940  0.19760625    -0.20600
C1652       C  0.10888917  0.90505994  0.21288377     0.25100
C1653       C  0.09441376  0.90183716  0.23451376    -0.18200
C1654       C  0.07538850  0.91862693  0.24031632    -0.08200
C1655       C  0.12876950  0.88728489  0.20562408    -0.18400
C1656       C  0.12775957  0.86285666  0.21111519    -0.23200
C1657       C  0.14620539  0.84441208  0.20191006     0.27200
C1658       C  0.13877228  0.81951764  0.19905606    -0.20000
C1659       C  0.15539292  0.80158095  0.19012409    -0.09600
C1660       C  0.17998567  0.80810757  0.18409487    -0.10200
C1661       C  0.18756938  0.83298273  0.18742587    -0.03100
C1662       C  0.17089953  0.85093850  0.19624848    -0.18200
H1663       H  0.08168439  0.95783075  0.19093236     0.10900
H1664       H  0.11533037  0.92869906  0.18096178     0.10900
H1665       H  0.09789863  0.88655639  0.24711078     0.10600
H1666       H  0.06446471  0.91586473  0.25704080     0.11700
H1667       H  0.14343856  0.89417014  0.19356444     0.11800
H1668       H  0.11173039  0.85565699  0.22107807     0.13700
H1669       H  0.11990470  0.81397467  0.20345681     0.10200
H1670       H  0.14894147  0.78260242  0.18792441     0.12300
H1671       H  0.20643931  0.83863035  0.18321745     0.08900
H1672       H  0.17753402  0.86977649  0.19891154     0.11700
C1673       C  0.81458802  0.81910671  0.19183267    -0.02900
C1674       C  0.82120625  0.83832661  0.17540172    -0.05500
C1675       C  0.83785698  0.85686057  0.18264470    -0.20600
C1676       C  0.84877643  0.85656039  0.20633509     0.25100
C1677       C  0.84233436  0.83733896  0.22294822    -0.18200
C1678       C  0.82521840  0.81883892  0.21578144    -0.08200
C1679       C  0.86606377  0.87721567  0.21278298    -0.18400
C1680       C  0.88504890  0.87543675  0.22908648    -0.23200
C1681       C  0.90375410  0.89570555  0.23298682     0.27200
C1682       C  0.91915647  0.89507566  0.25417188    -0.20000
C1683       C  0.93757541  0.91323215  0.25789942    -0.09600
C1684       C  0.94086604  0.93233879  0.24047164    -0.10200
C1685       C  0.92562031  0.93307236  0.21935143    -0.03100
C1686       C  0.90742363  0.91492234  0.21549876    -0.18200
H1687       H  0.81332464  0.83921473  0.15686084     0.10900
H1688       H  0.84239972  0.87146142  0.16951798     0.10900
H1689       H  0.85006067  0.83680644  0.24154234     0.10600
H1690       H  0.82049393  0.80424739  0.22883019     0.11700
H1691       H  0.86343519  0.89430929  0.20247940     0.11800
H1692       H  0.88743429  0.85836132  0.23956704     0.13700
H1693       H  0.91699019  0.88042963  0.26782365     0.10200
H1694       H  0.94928251  0.91236630  0.27427907     0.12300
H1695       H  0.92814217  0.94756041  0.20557915     0.08900
H1696       H  0.89689143  0.91585402  0.19841291     0.11700
C1697       C  0.93324061  0.05684243  0.23349220    -0.02900
C1698       C  0.91587710  0.04939084  0.21546329    -0.05500
C1699       C  0.89664776  0.06526865  0.20847931    -0.20600
C1700       C  0.89441720  0.08900925  0.21922417     0.25100
C1701       C  0.91159196  0.09628565  0.23772876    -0.18200
C1702       C  0.93071027  0.08021256  0.24491500    -0.08200
C1703       C  0.87501438  0.10592247  0.20923764    -0.18400
C1704       C  0.86838693  0.12767938  0.21980510    -0.23200
C1705       C  0.85007191  0.14479497  0.20832611     0.27200
C1706       C  0.83716005  0.16157174  0.22363849    -0.20000
C1707       C  0.82002865  0.17819850  0.21344302    -0.09600
C1708       C  0.81567538  0.17856786  0.18762150    -0.10200
C1709       C  0.82893928  0.16206851  0.17223019    -0.03100
C1710       C  0.84600240  0.14541676  0.18243021    -0.18200
H1711       H  0.91764242  0.03148584  0.20629464     0.10900
H1712       H  0.88380637  0.05918687  0.19414942     0.10900
H1713       H  0.91101261  0.11454692  0.24617056     0.10600
H1714       H  0.94406333  0.08630658  0.25875341     0.11700
H1715       H  0.86562819  0.09991575  0.19235692     0.11800
H1716       H  0.87589771  0.13301457  0.23777513     0.13700
H1717       H  0.84022820  0.16170665  0.24358483     0.10200
H1718       H  0.81028727  0.19083476  0.22579477     0.12300
H1719       H  0.82622673  0.16206226  0.15223858     0.08900
H1720       H  0.85628732  0.13347894  0.16987036     0.11700
C1721       C  0.06280879  0.06621314  0.22101246    -0.02900
C1722       C  0.06570178  0.07266582  0.19588839    -0.05500
C1723       C  0.08252185  0.09120852  0.18899379    -0.20600
C1724       C  0.09729156  0.10309110  0.20698234     0.25100
C1725       C  0.09447174  0.09657822  0.23220529    -0.18200
C1726       C  0.07720720  0.07833861  0.23916776    -0.08200
C1727       C  0.11483846  0.12268605  0.19877916    -0.18400
C1728       C  0.13704239  0.12666504  0.20963103    -0.23200
C1729       C  0.15485202  0.14550198  0.20011198     0.27200
C1730       C  0.18049865  0.14127629  0.20233007    -0.20000
C1731       C  0.19761978  0.15861837  0.19312178    -0.09600
C1732       C  0.18935152  0.18077451  0.18198953    -0.10200
C1733       C  0.16366945  0.18515084  0.18019866    -0.03100
C1734       C  0.14661133  0.16772156  0.18911425    -0.18200
H1735       H  0.05476156  0.06342534  0.18165946     0.10900
H1736       H  0.08427689  0.09605146  0.16949373     0.10900
H1737       H  0.10523647  0.10584261  0.24653320     0.10600
H1738       H  0.07512056  0.07357481  0.25864905     0.11700
H1739       H  0.11005647  0.13286742  0.18200483     0.11800
H1740       H  0.14301586  0.11470057  0.22476221     0.13700
H1741       H  0.18728080  0.12437746  0.21091666     0.10200
H1742       H  0.21730055  0.15482368  0.19498288     0.12300
H1743       H  0.15670046  0.20207923  0.17183714     0.08900
H1744       H  0.12698296  0.17189117  0.18772524     0.11700
loop_ 
_geom_bond_atom_site_label_1 
_geom_bond_atom_site_label_2 
_geom_bond_distance 
_geom_bond_site_symmetry_2 
_ccdc_geom_bond_type 
N1            C6   1.354   1_455  A
N1            C5   1.354       .  A
N1           H33   1.040       .  S
N2            C9   1.353       .  A
N2           C10   1.352   1_545  A
N3            C8   1.355   1_455  A
N3            C7   1.354       .  A
N3           H34   1.040       .  S
N4           C11   1.350   1_565  A
N4           C12   1.351       .  A
C5           C13   1.387       .  A
C5           C21   1.415       .  A
C6           C22   1.417       .  A
C6           C14   1.388       .  A
C7           C15   1.388       .  A
C7           C24   1.418       .  A
C8           C23   1.416       .  A
C8           C16   1.386       .  A
C9           C21   1.412       .  A
C9           C17   1.386       .  A
C10          C24   1.415       .  A
C10          C18   1.386       .  A
C11          C19   1.386       .  A
C11          C22   1.412       .  A
C12          C20   1.386       .  A
C12          C23   1.411       .  A
C13          C14   1.373   1_455  A
C13          H25   1.082       .  S
C14          H26   1.082       .  S
C15          C16   1.376   1_455  A
C15          H27   1.082       .  S
C16          H28   1.082       .  S
C17          C18   1.371   1_545  A
C17          H29   1.082       .  S
C18          H30   1.082       .  S
C19          C20   1.372   1_545  A
C19          H31   1.082       .  S
C20          H32   1.082       .  S
C21        C1721   1.485       .  S
C22        C1697   1.486       .  S
C23        C1684   1.487       .  S
C24        C1649   1.490       .  S
O35          C51   1.273       .  A
O35         Zn41   2.003       .  S
C36        C1577   1.477       .  S
C36          O52   1.273       .  A
C36          O49   1.272       .  A
O37          C50   1.276       .  A
O37         Cd44   2.078       .  S
O38          C56   1.273       .  A
O38         Cd47   2.058       .  S
O39          C53   1.277       .  A
O39         Cd43   2.081       .  S
O40          C51   1.275       .  A
O40         Cd43   2.076       .  S
Zn41         O52   2.005       .  S
Zn41         O54   2.000       .  S
Zn41         O46   1.929       .  S
O42          C53   1.272       .  A
O42         Cd47   2.041       .  S
Cd43         O45   2.075       .  S
Cd43         O46   2.008       .  S
Cd44         O48   2.068       .  S
Cd44         O57   2.080       .  S
Cd44         O46   2.000       .  S
O45          C55   1.276       .  A
O46         Cd47   1.990       .  S
Cd47         O49   2.058       .  S
O48          C55   1.276       .  A
C50        C1529   1.481       .  S
C50          O54   1.273       .  A
C51        C1553   1.482       .  S
C53        C1625   1.477       .  S
C55        C1732   1.480       .  S
C56        C1612   1.482       .  S
C56          O57   1.276       .  A
O58          C74   1.272       .  A
O58         Zn64   1.996       .  S
C59        C1708   1.479       .  S
C59          O75   1.274       .  A
C59          O72   1.274       .  A
O60          C73   1.273       .  A
O60         Cd67   2.060       .  S
O61          C79   1.275       .  A
O61         Cd70   2.060       .  S
O62          C76   1.277       .  A
O62         Cd66   2.084       .  S
O63          C74   1.275       .  A
O63         Cd66   2.071       .  S
Zn64         O75   2.012       .  S
Zn64         O77   2.005       .  S
Zn64         O69   1.929       .  S
O65          C76   1.275       .  A
O65         Cd70   2.064       .  S
Cd66         O68   2.073       .  S
Cd66         O69   2.002       .  S
Cd67         O71   2.053       .  S
Cd67         O80   2.063       .  S
Cd67         O69   1.995       .  S
O68          C78   1.276       .  A
O69         Cd70   1.986       .  S
Cd70         O72   2.064       .  S
O71          C78   1.274       .  A
C73        C1492   1.477       .  S
C73          O77   1.273       .  A
C74        C1505   1.478       .  S
C76        C1433   1.482       .  S
C78        C1468   1.474       .  S
C79        C1409   1.477       .  S
C79          O80   1.273       .  A
O81          C97   1.272       .  A
O81         Zn87   1.994       .  S
C82        C1361   1.479       .  S
C82          O98   1.272       .  A
C82          O95   1.274       .  A
O83          C96   1.276       .  A
O83         Cd90   2.083       .  S
O84         C102   1.275       .  A
O84         Cd93   2.067       .  S
O85          C99   1.277       .  A
O85         Cd89   2.077       .  S
O86          C97   1.277       .  A
O86         Cd89   2.101       .  S
Zn87         O98   1.999       .  S
Zn87        O100   1.995       .  S
Zn87         O92   1.924       .  S
O88          C99   1.275       .  A
O88         Cd93   2.058       .  S
Cd89         O91   2.081       .  S
Cd89         O92   2.012       .  S
Cd90         O94   2.073       .  S
Cd90        O103   2.081       .  S
Cd90         O92   2.008       .  S
O91         C101   1.278       .  A
O92         Cd93   1.999       .  S
Cd93         O95   2.074       .  S
O94         C101   1.277       .  A
C96        C1385   1.482       .  S
C96         O100   1.272       .  A
C97        C1673   1.485       .  S
C99        C1289   1.480       .  S
C101       C1313   1.481       .  S
C102       C1348   1.484       .  S
C102        O103   1.277       .  A
O104        C120   1.274       .  A
O104       Zn110   2.014       .  S
C105       C1180   1.480       .  S
C105        O121   1.272       .  A
C105        O118   1.276       .  A
O106        C119   1.275       .  A
O106       Cd113   2.080       .  S
O107        C125   1.275       .  A
O107       Cd116   2.070       .  S
O108        C122   1.277       .  A
O108       Cd112   2.081       .  S
O109        C120   1.276       .  A
O109       Cd112   2.090       .  S
Zn110       O121   1.996       .  S
Zn110       O123   2.003       .  S
Zn110       O115   1.933       .  S
O111        C122   1.276       .  A
O111       Cd116   2.074       .  S
Cd112       O114   2.073       .  S
Cd112       O115   2.007       .  S
Cd113       O117   2.071       .  S
Cd113       O126   2.082       .  S
Cd113       O115   2.008       .  S
O114        C124   1.277       .  A
O115       Cd116   2.004       .  S
Cd116       O118   2.080       .  S
O117        C124   1.277       .  A
C119       C1193   1.483       .  S
C119        O123   1.273       .  A
C120       C1228   1.488       .  S
C122       C1241   1.484       .  S
C124       C1276   1.481       .  S
C125       C1660   1.486       .  S
C125        O126   1.277       .  A
N127        C132   1.350       .  A
N127        C131   1.353       .  A
N127        H159   1.039       .  S
N128        C135   1.352       .  A
N128        C136   1.350   1_565  A
N129        C134   1.351       .  A
N129        C133   1.349       .  A
N129        H160   1.039       .  S
N130        C137   1.348       .  A
N130        C138   1.351   1_565  A
C131        C139   1.385       .  A
C131        C147   1.411       .  A
C132        C148   1.414       .  A
C132        C140   1.388       .  A
C133        C141   1.388       .  A
C133        C150   1.411       .  A
C134        C149   1.410       .  A
C134        C142   1.386       .  A
C135        C147   1.411       .  A
C135        C143   1.385       .  A
C136        C150   1.413       .  A
C136        C144   1.387       .  A
C137        C145   1.387       .  A
C137        C148   1.410       .  A
C138        C146   1.386       .  A
C138        C149   1.410       .  A
C139        C140   1.376       .  A
C139        H151   1.082       .  S
C140        H152   1.082       .  S
C141        C142   1.375       .  A
C141        H153   1.082       .  S
C142        H154   1.083       .  S
C143        C144   1.373   1_565  A
C143        H155   1.082       .  S
C144        H156   1.082       .  S
C145        C146   1.373   1_565  A
C145        H157   1.082       .  S
C146        H158   1.082       .  S
C147       C1252   1.484       .  S
C148       C1145   1.479       .  S
C149       C1132   1.483       .  S
C150       C1636   1.477       .  S
N161        C166   1.351       .  A
N161        C165   1.350   1_455  A
N161        H193   1.039       .  S
N162        C169   1.350       .  A
N162        C170   1.350       .  A
N163        C168   1.352       .  A
N163        C167   1.353   1_455  A
N163        H194   1.040       .  S
N164        C171   1.352       .  A
N164        C172   1.351       .  A
C165        C173   1.387       .  A
C165        C181   1.410       .  A
C166        C182   1.411       .  A
C166        C174   1.387       .  A
C167        C175   1.387       .  A
C167        C184   1.414       .  A
C168        C183   1.415       .  A
C168        C176   1.387       .  A
C169        C181   1.409       .  A
C169        C177   1.385       .  A
C170        C184   1.413       .  A
C170        C178   1.387       .  A
C171        C179   1.385       .  A
C171        C182   1.412       .  A
C172        C180   1.387       .  A
C172        C183   1.413       .  A
C173        C174   1.375   1_655  A
C173        H185   1.082       .  S
C174        H186   1.082       .  S
C175        C176   1.377   1_655  A
C175        H187   1.082       .  S
C176        H188   1.082       .  S
C177        C178   1.373       .  A
C177        H189   1.082       .  S
C178        H190   1.082       .  S
C179        C180   1.374       .  A
C179        H191   1.082       .  S
C180        H192   1.082       .  S
C181       C1516   1.479       .  S
C182       C1601   1.484       .  S
C183       C1097   1.488       .  S
C184       C1073   1.488       .  S
N195        C200   1.354       .  A
N195        C199   1.353   1_565  A
N195        H227   1.039       .  S
N196        C203   1.350       .  A
N196        C204   1.352       .  A
N197        C202   1.353       .  A
N197        C201   1.355   1_565  A
N197        H228   1.039       .  S
N198        C205   1.352       .  A
N198        C206   1.351       .  A
C199        C207   1.388       .  A
C199        C215   1.414       .  A
C200        C216   1.414       .  A
C200        C208   1.387       .  A
C201        C209   1.386       .  A
C201        C218   1.415       .  A
C202        C217   1.415       .  A
C202        C210   1.387       .  A
C203        C215   1.411       .  A
C203        C211   1.386       .  A
C204        C218   1.413       .  A
C204        C212   1.386       .  A
C205        C213   1.385       .  A
C205        C216   1.412       .  A
C206        C214   1.387       .  A
C206        C217   1.414       .  A
C207        C208   1.372   1_545  A
C207        H219   1.082       .  S
C208        H220   1.082       .  S
C209        C210   1.374   1_545  A
C209        H221   1.082       .  S
C210        H222   1.082       .  S
C211        C212   1.371       .  A
C211        H223   1.083       .  S
C212        H224   1.082       .  S
C213        C214   1.372       .  A
C213        H225   1.082       .  S
C214        H226   1.082       .  S
C215       C1481   1.480       .  S
C216       C1396   1.486       .  S
C217       C1036   1.485       .  S
C218       C1060   1.488       .  S
N229        C234   1.352       .  A
N229        C233   1.351       .  A
N229        H261   1.035       .  S
N230        C237   1.353   1_655  A
N230        C238   1.350       .  A
N231        C236   1.355       .  A
N231        C235   1.353       .  A
N231        H262   1.034       .  S
N232        C239   1.350   1_655  A
N232        C240   1.351       .  A
C233        C241   1.386       .  A
C233        C249   1.411       .  A
C234        C250   1.412       .  A
C234        C242   1.387       .  A
C235        C243   1.388       .  A
C235        C252   1.416       .  A
C236        C251   1.415       .  A
C236        C244   1.386       .  A
C237        C249   1.412       .  A
C237        C245   1.386       .  A
C238        C252   1.413       .  A
C238        C246   1.387       .  A
C239        C247   1.386       .  A
C239        C250   1.412       .  A
C240        C248   1.386       .  A
C240        C251   1.412       .  A
C241        C242   1.376       .  A
C241        H253   1.083       .  S
C242        H254   1.082       .  S
C243        C244   1.377       .  A
C243        H255   1.082       .  S
C244        H256   1.082       .  S
C245        C246   1.372   1_455  A
C245        H257   1.082       .  S
C246        H258   1.082       .  S
C247        C248   1.372   1_455  A
C247        H259   1.082       .  S
C248        H260   1.082       .  S
C249       C1265   1.487       .  S
C250        C977   1.481       .  S
C251       C1001   1.484       .  S
C252       C1372   1.482       .  S
O263        C279   1.275       .  A
O263       Zn269   2.015       .  S
C264        C940   1.482       .  S
C264        O280   1.275       .  A
C264        O277   1.272       .  A
O265        C278   1.276       .  A
O265       Cd272   2.077       .  S
O266        C284   1.273       .  A
O266       Cd275   2.054       .  S
O267        C281   1.275       .  A
O267       Cd271   2.075       .  S
O268        C279   1.276       .  A
O268       Cd271   2.074       .  S
Zn269       O280   2.023       .  S
Zn269       O282   2.018       .  S
Zn269       O274   1.936       .  S
O270        C281   1.273       .  A
O270       Cd275   2.048       .  S
Cd271       O273   2.073       .  S
Cd271       O274   2.004       .  S
Cd272       O276   2.076       .  S
Cd272       O285   2.075       .  S
Cd272       O274   2.004       .  S
O273        C283   1.276       .  A
O274       Cd275   1.992       .  S
Cd275       O277   2.060       .  S
O276        C283   1.276       .  A
C278        C881   1.484       .  S
C278        O282   1.276       .  A
C279        C905   1.482       .  S
C281       C1156   1.478       .  S
C283        C953   1.485       .  S
C284        C988   1.480       .  S
C284        O285   1.276       .  A
N286        C291   1.352       .  A
N286        C290   1.352   1_655  A
N286        H318   1.039       .  S
N287        C294   1.352   1_545  A
N287        C295   1.352       .  A
N288        C293   1.353       .  A
N288        C292   1.351   1_655  A
N288        H319   1.040       .  S
N289        C296   1.349   1_545  A
N289        C297   1.350       .  A
C290        C298   1.387       .  A
C290        C306   1.415       .  A
C291        C307   1.412       .  A
C291        C299   1.386       .  A
C292        C300   1.386       .  A
C292        C309   1.412       .  A
C293        C308   1.414       .  A
C293        C301   1.387       .  A
C294        C306   1.415       .  A
C294        C302   1.386       .  A
C295        C309   1.414       .  A
C295        C303   1.386       .  A
C296        C304   1.387   1_565  A
C296        C307   1.410       .  A
C297        C305   1.387       .  A
C297        C308   1.411       .  A
C298        C299   1.377   1_455  A
C298        H310   1.082       .  S
C299        H311   1.082       .  S
C300        C301   1.376   1_455  A
C300        H312   1.082       .  S
C301        H313   1.082       .  S
C302        C303   1.373   1_565  A
C302        H314   1.082       .  S
C303        H315   1.082       .  S
C304        C305   1.372       .  A
C304        H316   1.082   1_545  S
C305        H317   1.082       .  S
C306        C964   1.490       .  S
C307        C820   1.476       .  S
C308        C833   1.487       .  S
C309        C868   1.488       .  S
O320        C336   1.273       .  A
O320       Zn326   2.007       .  S
C321        C748   1.482       .  S
C321        O337   1.273       .  A
C321        O334   1.275       .  A
O322        C335   1.274       .  A
O322       Cd329   2.067       .  S
O323        C341   1.276       .  A
O323       Cd332   2.078       .  S
O324        C338   1.276       .  A
O324       Cd328   2.066       .  S
O325        C336   1.275       .  A
O325       Cd328   2.072       .  S
Zn326       O337   2.009       .  S
Zn326       O339   2.007       .  S
Zn326       O331   1.939       .  S
O327        C338   1.276       .  A
O327       Cd332   2.071       .  S
Cd328       O330   2.073       .  S
Cd328       O331   2.001       .  S
Cd329       O333   2.076       .  S
Cd329       O342   2.070       .  S
Cd329       O331   1.999       .  S
O330        C340   1.275       .  A
O331       Cd332   2.004       .  S
Cd332       O334   2.077       .  S
O333        C340   1.276       .  A
C335        C772   1.479       .  S
C335        O339   1.274       .  A
C336        C796   1.480       .  S
C338       C1121   1.481       .  S
C340       C1108   1.485       .  S
C341        C857   1.484       .  S
C341        O342   1.276       .  A
O343        C359   1.272       .  A
O343       Zn349   1.992       .  S
C344       C1084   1.479       .  S
C344        O360   1.272       .  A
C344        O357   1.274       .  A
O345        C358   1.276       .  A
O345       Cd352   2.089       .  S
O346        C364   1.274       .  A
O346       Cd355   2.054       .  S
O347        C361   1.277       .  A
O347       Cd351   2.085       .  S
O348        C359   1.276       .  A
O348       Cd351   2.084       .  S
Zn349       O360   1.995       .  S
Zn349       O362   1.994       .  S
Zn349       O354   1.925       .  S
O350        C361   1.275       .  A
O350       Cd355   2.064       .  S
Cd351       O353   2.072       .  S
Cd351       O354   2.007       .  S
Cd352       O356   2.076       .  S
Cd352       O365   2.083       .  S
Cd352       O354   2.008       .  S
O353        C363   1.277       .  A
O354       Cd355   1.998       .  S
Cd355       O357   2.070       .  S
O356        C363   1.277       .  A
C358       C1049   1.484       .  S
C358        O362   1.272       .  A
C359        C844   1.481       .  S
C361        C665   1.484       .  S
C363        C689   1.483       .  S
C364        C713   1.482       .  S
C364        O365   1.278       .  A
O366        C382   1.274       .  A
O366       Zn372   2.009       .  S
C367        C617   1.486       .  S
C367        O383   1.274       .  A
C367        O380   1.276       .  A
O368        C381   1.274       .  A
O368       Cd375   2.073       .  S
O369        C387   1.277       .  A
O369       Cd378   2.087       .  S
O370        C384   1.276       .  A
O370       Cd374   2.068       .  S
O371        C382   1.276       .  A
O371       Cd374   2.082       .  S
Zn372       O383   2.002       .  S
Zn372       O385   2.009       .  S
Zn372       O377   1.928       .  S
O373        C384   1.276       .  A
O373       Cd378   2.070       .  S
Cd374       O376   2.079       .  S
Cd374       O377   2.005       .  S
Cd375       O379   2.066       .  S
Cd375       O388   2.057       .  S
Cd375       O377   1.997       .  S
O376        C386   1.276       .  A
O377       Cd378   2.013       .  S
Cd378       O380   2.093       .  S
O379        C386   1.275       .  A
C381        C652   1.482       .  S
C381        O385   1.274       .  A
C382        C604   1.484       .  S
C384        C809   1.477       .  S
C386       C1025   1.483       .  S
C387       C1012   1.480       .  S
C387        O388   1.274       .  A
N389        C394   1.354       .  A
N389        C393   1.353       .  A
N389        H421   1.040       .  S
N390        C397   1.352       .  A
N390        C398   1.351       .  A
N391        C396   1.354       .  A
N391        C395   1.354       .  A
N391        H422   1.040       .  S
N392        C399   1.352       .  A
N392        C400   1.351       .  A
C393        C401   1.387       .  A
C393        C409   1.414       .  A
C394        C410   1.415       .  A
C394        C402   1.387       .  A
C395        C403   1.387       .  A
C395        C412   1.414       .  A
C396        C411   1.415       .  A
C396        C404   1.388       .  A
C397        C409   1.412       .  A
C397        C405   1.386       .  A
C398        C412   1.412       .  A
C398        C406   1.386       .  A
C399        C407   1.386       .  A
C399        C410   1.413       .  A
C400        C408   1.386       .  A
C400        C411   1.413       .  A
C401        C402   1.374       .  A
C401        H413   1.082       .  S
C402        H414   1.082       .  S
C403        C404   1.372       .  A
C403        H415   1.082       .  S
C404        H416   1.082       .  S
C405        C406   1.372       .  A
C405        H417   1.082       .  S
C406        H418   1.082       .  S
C407        C408   1.372       .  A
C407        H419   1.082       .  S
C408        H420   1.082       .  S
C409        C785   1.485       .  S
C410        C724   1.487       .  S
C411        C641   1.487       .  S
C412        C929   1.486       .  S
N423        C428   1.356       .  A
N423        C427   1.354       .  A
N423        H455   1.039       .  S
N424        C431   1.350       .  A
N424        C432   1.352       .  A
N425        C430   1.352       .  A
N425        C429   1.353       .  A
N425        H456   1.038       .  S
N426        C433   1.350       .  A
N426        C434   1.350       .  A
C427        C435   1.388       .  A
C427        C443   1.418       .  A
C428        C444   1.416       .  A
C428        C436   1.386       .  A
C429        C437   1.389       .  A
C429        C446   1.415       .  A
C430        C445   1.411       .  A
C430        C438   1.386       .  A
C431        C443   1.414       .  A
C431        C439   1.387       .  A
C432        C446   1.412       .  A
C432        C440   1.386       .  A
C433        C441   1.386       .  A
C433        C444   1.410       .  A
C434        C442   1.386       .  A
C434        C445   1.409       .  A
C435        C436   1.376       .  A
C435        H447   1.082       .  S
C436        H448   1.082       .  S
C437        C438   1.373       .  A
C437        H449   1.082       .  S
C438        H450   1.082       .  S
C439        C440   1.371       .  A
C439        H451   1.082       .  S
C440        H452   1.082       .  S
C441        C442   1.370       .  A
C441        H453   1.082       .  S
C442        H454   1.082       .  S
C443       C1337   1.485       .  S
C444       C1217   1.484       .  S
C445       C1588   1.476       .  S
C446       C1457   1.482       .  S
N457        C462   1.354       .  A
N457        C461   1.351       .  A
N457        H489   1.038       .  S
N458        C465   1.352       .  A
N458        C466   1.353       .  A
N459        C464   1.352       .  A
N459        C463   1.354       .  A
N459        H490   1.037       .  S
N460        C467   1.352       .  A
N460        C468   1.351       .  A
C461        C469   1.387       .  A
C461        C477   1.414       .  A
C462        C478   1.416       .  A
C462        C470   1.387       .  A
C463        C471   1.387       .  A
C463        C480   1.415       .  A
C464        C479   1.415       .  A
C464        C472   1.387       .  A
C465        C477   1.415       .  A
C465        C473   1.387       .  A
C466        C480   1.414       .  A
C466        C474   1.386       .  A
C467        C475   1.385       .  A
C467        C478   1.412       .  A
C468        C476   1.387       .  A
C468        C479   1.414       .  A
C469        C470   1.377       .  A
C469        H481   1.082       .  S
C470        H482   1.082       .  S
C471        C472   1.377       .  A
C471        H483   1.082       .  S
C472        H484   1.082       .  S
C473        C474   1.373       .  A
C473        H485   1.082       .  S
C474        H486   1.082       .  S
C475        C476   1.370       .  A
C475        H487   1.082       .  S
C476        H488   1.082       .  S
C477        C676   1.483       .  S
C478        C628   1.491       .  S
C479       C1300   1.484       .  S
C480       C1444   1.486       .  S
N491        C496   1.354       .  A
N491        C495   1.353       .  A
N491        H523   1.040       .  S
N492        C499   1.350       .  A
N492        C500   1.350       .  A
N493        C498   1.353       .  A
N493        C497   1.354       .  A
N493        H524   1.041       .  S
N494        C501   1.351       .  A
N494        C502   1.350       .  A
C495        C503   1.387       .  A
C495        C511   1.413       .  A
C496        C512   1.414       .  A
C496        C504   1.387       .  A
C497        C505   1.386       .  A
C497        C514   1.414       .  A
C498        C513   1.415       .  A
C498        C506   1.388       .  A
C499        C511   1.409       .  A
C499        C507   1.386       .  A
C500        C514   1.411       .  A
C500        C508   1.386       .  A
C501        C509   1.386       .  A
C501        C512   1.411       .  A
C502        C510   1.387       .  A
C502        C513   1.411       .  A
C503        C504   1.374       .  A
C503        H515   1.082       .  S
C504        H516   1.082       .  S
C505        C506   1.374       .  A
C505        H517   1.082       .  S
C506        H518   1.082       .  S
C507        C508   1.373       .  A
C507        H519   1.082       .  S
C508        H520   1.082       .  S
C509        C510   1.373       .  A
C509        H521   1.082       .  S
C510        H522   1.082       .  S
C511       C1324   1.479       .  S
C512        C593   1.485       .  S
C513        C916   1.484       .  S
C514       C1169   1.487       .  S
N525        C530   1.352       .  A
N525        C529   1.352       .  A
N525        H557   1.039       .  S
N526        C533   1.352       .  A
N526        C534   1.352       .  A
N527        C532   1.353       .  A
N527        C531   1.354       .  A
N527        H558   1.038       .  S
N528        C535   1.353       .  A
N528        C536   1.352       .  A
C529        C537   1.387       .  A
C529        C545   1.411       .  A
C530        C546   1.412       .  A
C530        C538   1.387       .  A
C531        C539   1.387       .  A
C531        C548   1.417       .  A
C532        C547   1.415       .  A
C532        C540   1.386       .  A
C533        C545   1.412       .  A
C533        C541   1.385       .  A
C534        C548   1.416       .  A
C534        C542   1.387       .  A
C535        C543   1.385       .  A
C535        C546   1.413       .  A
C536        C544   1.387       .  A
C536        C547   1.415       .  A
C537        C538   1.374       .  A
C537        H549   1.082       .  S
C538        H550   1.082       .  S
C539        C540   1.377       .  A
C539        H551   1.082       .  S
C540        H552   1.082       .  S
C541        C542   1.373       .  A
C541        H553   1.082       .  S
C542        H554   1.082       .  S
C543        C544   1.373       .  A
C543        H555   1.082       .  S
C544        H556   1.082       .  S
C545        C761   1.483       .  S
C546       C1540   1.487       .  S
C547       C1204   1.486       .  S
C548        C892   1.491       .  S
N559        C564   1.351       .  A
N559        C563   1.353       .  A
N559        H591   1.041       .  S
N560        C567   1.352       .  A
N560        C568   1.350       .  A
N561        C566   1.354       .  A
N561        C565   1.351       .  A
N561        H592   1.040       .  S
N562        C569   1.349       .  A
N562        C570   1.350       .  A
C563        C571   1.386       .  A
C563        C579   1.412       .  A
C564        C580   1.412       .  A
C564        C572   1.388       .  A
C565        C573   1.387       .  A
C565        C582   1.412       .  A
C566        C581   1.414       .  A
C566        C574   1.387       .  A
C567        C579   1.411       .  A
C567        C575   1.386       .  A
C568        C582   1.411       .  A
C568        C576   1.387       .  A
C569        C577   1.386       .  A
C569        C580   1.408       .  A
C570        C578   1.385       .  A
C570        C581   1.409       .  A
C571        C572   1.375       .  A
C571        H583   1.082       .  S
C572        H584   1.082       .  S
C573        C574   1.375       .  A
C573        H585   1.082       .  S
C574        H586   1.082       .  S
C575        C576   1.372       .  A
C575        H587   1.082       .  S
C576        H588   1.082       .  S
C577        C578   1.373       .  A
C577        H589   1.082       .  S
C578        H590   1.082       .  S
C579        C700   1.488       .  S
C580        C737   1.478       .  S
C581       C1564   1.486       .  S
C582       C1420   1.479       .  S
C593        C594   1.402       .  A
C593        C598   1.402       .  A
C594        C595   1.399       .  A
C594        H607   1.083       .  S
C595        C596   1.405       .  A
C595        H608   1.083       .  S
C596        C597   1.409       .  A
C596        C599   1.487       .  S
C597        C598   1.397       .  A
C597        H609   1.082       .  S
C598        H610   1.083       .  S
C599        C600   1.348       .  D
C599        H611   1.084       .  S
C600        C601   1.489       .  S
C600        H612   1.086       .  S
C601        C602   1.403       .  A
C601        C606   1.409       .  A
C602        C603   1.396       .  A
C602        H613   1.084       .  S
C603        C604   1.406       .  A
C603        H614   1.083       .  S
C604        C605   1.406       .  A
C605        C606   1.401       .  A
C605        H615   1.083       .  S
C606        H616   1.081       .  S
C617        C618   1.405       .  A
C617        C622   1.408       .  A
C618        C619   1.392       .  A
C618        H631   1.083       .  S
C619        C620   1.402       .  A
C619        H632   1.084       .  S
C620        C621   1.411       .  A
C620        C623   1.491       .  S
C621        C622   1.406       .  A
C621        H633   1.080       .  S
C622        H634   1.083       .  S
C623        C624   1.348       .  D
C623        H635   1.085       .  S
C624        C625   1.492       .  S
C624        H636   1.084       .  S
C625        C626   1.405       .  A
C625        C630   1.410       .  A
C626        C627   1.401       .  A
C626        H637   1.083       .  S
C627        C628   1.405       .  A
C627        H638   1.083       .  S
C628        C629   1.402       .  A
C629        C630   1.397       .  A
C629        H639   1.083       .  S
C630        H640   1.082       .  S
C641        C642   1.403       .  A
C641        C646   1.401       .  A
C642        C643   1.401       .  A
C642        H655   1.083       .  S
C643        C644   1.406       .  A
C643        H656   1.083       .  S
C644        C645   1.408       .  A
C644        C647   1.488       .  S
C645        C646   1.394       .  A
C645        H657   1.081       .  S
C646        H658   1.083       .  S
C647        C648   1.348       .  D
C647        H659   1.085       .  S
C648        C649   1.486       .  S
C648        H660   1.085       .  S
C649        C650   1.402       .  A
C649        C654   1.409       .  A
C650        C651   1.394       .  A
C650        H661   1.083       .  S
C651        C652   1.405       .  A
C651        H662   1.083       .  S
C652        C653   1.407       .  A
C653        C654   1.401       .  A
C653        H663   1.083       .  S
C654        H664   1.081       .  S
C665        C666   1.408       .  A
C665        C670   1.406       .  A
C666        C667   1.398       .  A
C666        H679   1.083       .  S
C667        C668   1.402       .  A
C667        H680   1.083       .  S
C668        C669   1.407       .  A
C668        C671   1.484       .  S
C669        C670   1.399       .  A
C669        H681   1.082       .  S
C670        H682   1.083       .  S
C671        C672   1.346       .  D
C671        H683   1.086       .  S
C672        C673   1.484       .  S
C672        H684   1.086       .  S
C673        C674   1.405       .  A
C673        C678   1.408       .  A
C674        C675   1.398       .  A
C674        H685   1.083       .  S
C675        C676   1.401       .  A
C675        H686   1.083       .  S
C676        C677   1.402       .  A
C677        C678   1.398       .  A
C677        H687   1.083       .  S
C678        H688   1.082       .  S
C689        C690   1.406       .  A
C689        C694   1.407       .  A
C690        C691   1.398       .  A
C690        H703   1.083       .  S
C691        C692   1.402       .  A
C691        H704   1.083       .  S
C692        C693   1.407       .  A
C692        C695   1.485       .  S
C693        C694   1.398       .  A
C693        H705   1.082       .  S
C694        H706   1.083       .  S
C695        C696   1.346       .  D
C695        H707   1.085       .  S
C696        C697   1.485       .  S
C696        H708   1.086       .  S
C697        C698   1.404       .  A
C697        C702   1.409       .  A
C698        C699   1.396       .  A
C698        H709   1.083       .  S
C699        C700   1.403       .  A
C699        H710   1.083       .  S
C700        C701   1.404       .  A
C701        C702   1.400       .  A
C701        H711   1.083       .  S
C702        H712   1.081       .  S
C713        C714   1.405       .  A
C713        C718   1.407       .  A
C714        C715   1.399       .  A
C714        H727   1.083       .  S
C715        C716   1.404       .  A
C715        H728   1.083       .  S
C716        C717   1.406       .  A
C716        C719   1.485       .  S
C717        C718   1.396       .  A
C717        H729   1.082       .  S
C718        H730   1.083       .  S
C719        C720   1.347       .  D
C719        H731   1.085       .  S
C720        C721   1.485       .  S
C720        H732   1.086       .  S
C721        C722   1.404       .  A
C721        C726   1.409       .  A
C722        C723   1.396       .  A
C722        H733   1.083       .  S
C723        C724   1.402       .  A
C723        H734   1.083       .  S
C724        C725   1.403       .  A
C725        C726   1.400       .  A
C725        H735   1.083       .  S
C726        H736   1.082       .  S
C737        C738   1.401       .  A
C737        C742   1.401       .  A
C738        C739   1.398       .  A
C738        H751   1.083       .  S
C739        C740   1.405       .  A
C739        H752   1.083       .  S
C740        C741   1.408       .  A
C740        C743   1.483       .  S
C741        C742   1.394       .  A
C741        H753   1.082       .  S
C742        H754   1.083       .  S
C743        C744   1.348       .  D
C743        H755   1.082       .  S
C744        C745   1.488       .  S
C744        H756   1.086       .  S
C745        C746   1.404       .  A
C745        C750   1.409       .  A
C746        C747   1.396       .  A
C746        H757   1.084       .  S
C747        C748   1.406       .  A
C747        H758   1.083       .  S
C748        C749   1.404       .  A
C749        C750   1.398       .  A
C749        H759   1.083       .  S
C750        H760   1.079       .  S
C761        C762   1.402       .  A
C761        C766   1.400       .  A
C762        C763   1.396       .  A
C762        H775   1.083       .  S
C763        C764   1.405       .  A
C763        H776   1.083       .  S
C764        C765   1.411       .  A
C764        C767   1.488       .  S
C765        C766   1.398       .  A
C765        H777   1.079       .  S
C766        H778   1.083       .  S
C767        C768   1.348       .  D
C767        H779   1.085       .  S
C768        C769   1.485       .  S
C768        H780   1.083       .  S
C769        C770   1.403       .  A
C769        C774   1.407       .  A
C770        C771   1.398       .  A
C770        H781   1.083       .  S
C771        C772   1.405       .  A
C771        H782   1.083       .  S
C772        C773   1.405       .  A
C773        C774   1.395       .  A
C773        H783   1.083       .  S
C774        H784   1.081       .  S
C785        C786   1.402       .  A
C785        C790   1.401       .  A
C786        C787   1.397       .  A
C786        H799   1.083       .  S
C787        C788   1.405       .  A
C787        H800   1.083       .  S
C788        C789   1.410       .  A
C788        C791   1.488       .  S
C789        C790   1.398       .  A
C789        H801   1.080       .  S
C790        H802   1.083       .  S
C791        C792   1.348       .  D
C791        H803   1.085       .  S
C792        C793   1.487       .  S
C792        H804   1.084       .  S
C793        C794   1.404       .  A
C793        C798   1.408       .  A
C794        C795   1.398       .  A
C794        H805   1.083       .  S
C795        C796   1.405       .  A
C795        H806   1.083       .  S
C796        C797   1.406       .  A
C797        C798   1.397       .  A
C797        H807   1.083       .  S
C798        H808   1.081       .  S
C809        C810   1.405       .  A
C809        C814   1.405       .  A
C810        C811   1.397       .  A
C810        H823   1.083       .  S
C811        C812   1.401       .  A
C811        H824   1.083       .  S
C812        C813   1.405       .  A
C812        C815   1.477       .  S
C813        C814   1.396       .  A
C813        H825   1.083       .  S
C814        H826   1.083       .  S
C815        C816   1.343       .  D
C815        H827   1.086       .  S
C816        C817   1.477       .  S
C816        H828   1.087       .  S
C817        C818   1.402       .  A
C817        C822   1.407       .  A
C818        C819   1.394       .  A
C818        H829   1.083       .  S
C819        C820   1.401       .  A
C819        H830   1.083       .  S
C820        C821   1.401       .  A
C821        C822   1.398       .  A
C821        H831   1.083       .  S
C822        H832   1.082       .  S
C833        C834   1.405       .  A
C833        C838   1.402       .  A
C834        C835   1.399       .  A
C834        H847   1.083       .  S
C835        C836   1.404       .  A
C835        H848   1.083       .  S
C836        C837   1.408       .  A
C836        C839   1.485       .  S
C837        C838   1.395       .  A
C837        H849   1.082       .  S
C838        H850   1.083       .  S
C839        C840   1.346       .  D
C839        H851   1.085       .  S
C840        C841   1.484       .  S
C840        H852   1.086       .  S
C841        C842   1.401       .  A
C841        C846   1.409       .  A
C842        C843   1.392       .  A
C842        H853   1.084       .  S
C843        C844   1.405       .  A
C843        H854   1.083       .  S
C844        C845   1.406       .  A
C845        C846   1.402       .  A
C845        H855   1.083       .  S
C846        H856   1.081       .  S
C857        C858   1.406       .  A
C857        C862   1.406       .  A
C858        C859   1.399       .  A
C858        H871   1.083       .  S
C859        C860   1.404       .  A
C859        H872   1.083       .  S
C860        C861   1.408       .  A
C860        C863   1.490       .  S
C861        C862   1.398       .  A
C861        H873   1.081       .  S
C862        H874   1.083       .  S
C863        C864   1.348       .  D
C863        H875   1.085       .  S
C864        C865   1.486       .  S
C864        H876   1.084       .  S
C865        C866   1.403       .  A
C865        C870   1.409       .  A
C866        C867   1.395       .  A
C866        H877   1.083       .  S
C867        C868   1.403       .  A
C867        H878   1.083       .  S
C868        C869   1.404       .  A
C869        C870   1.401       .  A
C869        H879   1.083       .  S
C870        H880   1.082       .  S
C881        C882   1.404       .  A
C881        C886   1.407       .  A
C882        C883   1.395       .  A
C882        H895   1.083       .  S
C883        C884   1.404       .  A
C883        H896   1.083       .  S
C884        C885   1.409       .  A
C884        C887   1.490       .  S
C885        C886   1.402       .  A
C885        H897   1.081       .  S
C886        H898   1.083       .  S
C887        C888   1.350       .  D
C887        H899   1.084       .  S
C888        C889   1.492       .  S
C888        H900   1.084       .  S
C889        C890   1.406       .  A
C889        C894   1.409       .  A
C890        C891   1.401       .  A
C890        H901   1.083       .  S
C891        C892   1.404       .  A
C891        H902   1.083       .  S
C892        C893   1.402       .  A
C893        C894   1.396       .  A
C893        H903   1.083       .  S
C894        H904   1.081       .  S
C905        C906   1.405       .  A
C905        C910   1.405       .  A
C906        C907   1.399       .  A
C906        H919   1.083       .  S
C907        C908   1.404       .  A
C907        H920   1.083       .  S
C908        C909   1.409       .  A
C908        C911   1.490       .  S
C909        C910   1.396       .  A
C909        H921   1.080       .  S
C910        H922   1.083       .  S
C911        C912   1.348       .  D
C911        H923   1.083       .  S
C912        C913   1.489       .  S
C912        H924   1.084       .  S
C913        C914   1.405       .  A
C913        C918   1.412       .  A
C914        C915   1.394       .  A
C914        H925   1.083       .  S
C915        C916   1.400       .  A
C915        H926   1.083       .  S
C916        C917   1.402       .  A
C917        C918   1.400       .  A
C917        H927   1.083       .  S
C918        H928   1.079       .  S
C929        C930   1.401       .  A
C929        C934   1.402       .  A
C930        C931   1.395       .  A
C930        H943   1.083       .  S
C931        C932   1.405       .  A
C931        H944   1.083       .  S
C932        C933   1.411       .  A
C932        C935   1.489       .  S
C933        C934   1.400       .  A
C933        H945   1.079       .  S
C934        H946   1.083       .  S
C935        C936   1.349       .  D
C935        H947   1.084       .  S
C936        C937   1.489       .  S
C936        H948   1.083       .  S
C937        C938   1.404       .  A
C937        C942   1.408       .  A
C938        C939   1.399       .  A
C938        H949   1.083       .  S
C939        C940   1.407       .  A
C939        H950   1.083       .  S
C940        C941   1.404       .  A
C941        C942   1.395       .  A
C941        H951   1.083       .  S
C942        H952   1.080       .  S
C953        C954   1.407       .  A
C953        C958   1.406       .  A
C954        C955   1.400       .  A
C954        H967   1.083       .  S
C955        C956   1.403       .  A
C955        H968   1.083       .  S
C956        C957   1.407       .  A
C956        C959   1.488       .  S
C957        C958   1.398       .  A
C957        H969   1.082       .  S
C958        H970   1.083       .  S
C959        C960   1.348       .  D
C959        H971   1.085       .  S
C960        C961   1.488       .  S
C960        H972   1.086       .  S
C961        C962   1.405       .  A
C961        C966   1.409       .  A
C962        C963   1.398       .  A
C962        H973   1.083       .  S
C963        C964   1.403       .  A
C963        H974   1.083       .  S
C964        C965   1.404       .  A
C965        C966   1.399       .  A
C965        H975   1.083       .  S
C966        H976   1.081       .  S
C977        C978   1.402       .  A
C977        C982   1.400       .  A
C978        C979   1.398       .  A
C978        H991   1.083       .  S
C979        C980   1.404       .  A
C979        H992   1.083       .  S
C980        C981   1.409       .  A
C980        C983   1.484       .  S
C981        C982   1.395       .  A
C981        H993   1.081       .  S
C982        H994   1.083       .  S
C983        C984   1.345       .  D
C983        H995   1.085       .  S
C984        C985   1.483       .  S
C984        H996   1.085       .  S
C985        C986   1.402       .  A
C985        C990   1.408       .  A
C986        C987   1.395       .  A
C986        H997   1.084       .  S
C987        C988   1.406       .  A
C987        H998   1.083       .  S
C988        C989   1.405       .  A
C989        C990   1.398       .  A
C989        H999   1.083       .  S
C990       H1000   1.081       .  S
C1001      C1002   1.401       .  A
C1001      C1006   1.402       .  A
C1002      C1003   1.399       .  A
C1002      H1015   1.083       .  S
C1003      C1004   1.405       .  A
C1003      H1016   1.083       .  S
C1004      C1005   1.409       .  A
C1004      C1007   1.487       .  S
C1005      C1006   1.400       .  A
C1005      H1017   1.082       .  S
C1006      H1018   1.083       .  S
C1007      C1008   1.345       .  D
C1007      H1019   1.087       .  S
C1008      C1009   1.483       .  S
C1008      H1020   1.086       .  S
C1009      C1010   1.400       .  A
C1009      C1014   1.408       .  A
C1010      C1011   1.395       .  A
C1010      H1021   1.083       .  S
C1011      C1012   1.406       .  A
C1011      H1022   1.083       .  S
C1012      C1013   1.406       .  A
C1013      C1014   1.402       .  A
C1013      H1023   1.083       .  S
C1014      H1024   1.083       .  S
C1025      C1026   1.406       .  A
C1025      C1030   1.406       .  A
C1026      C1027   1.399       .  A
C1026      H1039   1.083       .  S
C1027      C1028   1.404       .  A
C1027      H1040   1.083       .  S
C1028      C1029   1.407       .  A
C1028      C1031   1.487       .  S
C1029      C1030   1.397       .  A
C1029      H1041   1.081       .  S
C1030      H1042   1.083       .  S
C1031      C1032   1.348       .  D
C1031      H1043   1.085       .  S
C1032      C1033   1.486       .  S
C1032      H1044   1.085       .  S
C1033      C1034   1.404       .  A
C1033      C1038   1.409       .  A
C1034      C1035   1.396       .  A
C1034      H1045   1.083       .  S
C1035      C1036   1.402       .  A
C1035      H1046   1.083       .  S
C1036      C1037   1.402       .  A
C1037      C1038   1.399       .  A
C1037      H1047   1.083       .  S
C1038      H1048   1.081       .  S
C1049      C1050   1.406       .  A
C1049      C1054   1.406       .  A
C1050      C1051   1.394       .  A
C1050      H1063   1.083       .  S
C1051      C1052   1.402       .  A
C1051      H1064   1.084       .  S
C1052      C1053   1.409       .  A
C1052      C1055   1.487       .  S
C1053      C1054   1.402       .  A
C1053      H1065   1.081       .  S
C1054      H1066   1.083       .  S
C1055      C1056   1.348       .  D
C1055      H1067   1.084       .  S
C1056      C1057   1.490       .  S
C1056      H1068   1.085       .  S
C1057      C1058   1.406       .  A
C1057      C1062   1.410       .  A
C1058      C1059   1.400       .  A
C1058      H1069   1.083       .  S
C1059      C1060   1.403       .  A
C1059      H1070   1.083       .  S
C1060      C1061   1.402       .  A
C1061      C1062   1.396       .  A
C1061      H1071   1.083       .  S
C1062      H1072   1.081       .  S
C1073      C1074   1.403       .  A
C1073      C1078   1.404       .  A
C1074      C1075   1.395       .  A
C1074      H1087   1.083       .  S
C1075      C1076   1.404       .  A
C1075      H1088   1.083       .  S
C1076      C1077   1.409       .  A
C1076      C1079   1.485       .  S
C1077      C1078   1.399       .  A
C1077      H1089   1.080       .  S
C1078      H1090   1.083       .  S
C1079      C1080   1.347       .  D
C1079      H1091   1.086       .  S
C1080      C1081   1.484       .  S
C1080      H1092   1.084       .  S
C1081      C1082   1.404       .  A
C1081      C1086   1.406       .  A
C1082      C1083   1.399       .  A
C1082      H1093   1.083       .  S
C1083      C1084   1.405       .  A
C1083      H1094   1.083       .  S
C1084      C1085   1.405       .  A
C1085      C1086   1.393       .  A
C1085      H1095   1.083       .  S
C1086      H1096   1.082       .  S
C1097      C1098   1.402       .  A
C1097      C1102   1.404       .  A
C1098      C1099   1.395       .  A
C1098      H1111   1.083       .  S
C1099      C1100   1.404       .  A
C1099      H1112   1.083       .  S
C1100      C1101   1.409       .  A
C1100      C1103   1.487       .  S
C1101      C1102   1.401       .  A
C1101      H1113   1.081       .  S
C1102      H1114   1.083       .  S
C1103      C1104   1.349       .  D
C1103      H1115   1.084       .  S
C1104      C1105   1.491       .  S
C1104      H1116   1.085       .  S
C1105      C1106   1.405       .  A
C1105      C1110   1.409       .  A
C1106      C1107   1.400       .  A
C1106      H1117   1.083       .  S
C1107      C1108   1.407       .  A
C1107      H1118   1.083       .  S
C1108      C1109   1.405       .  A
C1109      C1110   1.397       .  A
C1109      H1119   1.083       .  S
C1110      H1120   1.081       .  S
C1121      C1122   1.406       .  A
C1121      C1126   1.405       .  A
C1122      C1123   1.398       .  A
C1122      H1135   1.083       .  S
C1123      C1124   1.403       .  A
C1123      H1136   1.083       .  S
C1124      C1125   1.408       .  A
C1124      C1127   1.486       .  S
C1125      C1126   1.396       .  A
C1125      H1137   1.081       .  S
C1126      H1138   1.083       .  S
C1127      C1128   1.347       .  D
C1127      H1139   1.085       .  S
C1128      C1129   1.484       .  S
C1128      H1140   1.084       .  S
C1129      C1130   1.403       .  A
C1129      C1134   1.410       .  A
C1130      C1131   1.394       .  A
C1130      H1141   1.083       .  S
C1131      C1132   1.402       .  A
C1131      H1142   1.083       .  S
C1132      C1133   1.403       .  A
C1133      C1134   1.399       .  A
C1133      H1143   1.083       .  S
C1134      H1144   1.081       .  S
C1145      C1146   1.401       .  A
C1145      C1150   1.402       .  A
C1146      C1147   1.392       .  A
C1146      H1159   1.083       .  S
C1147      C1148   1.402       .  A
C1147      H1160   1.083       .  S
C1148      C1149   1.408       .  A
C1148      C1151   1.478       .  S
C1149      C1150   1.397       .  A
C1149      H1161   1.082       .  S
C1150      H1162   1.083       .  S
C1151      C1152   1.345       .  D
C1151      H1163   1.085       .  S
C1152      C1153   1.481       .  S
C1152      H1164   1.085       .  S
C1153      C1154   1.403       .  A
C1153      C1158   1.406       .  A
C1154      C1155   1.398       .  A
C1154      H1165   1.083       .  S
C1155      C1156   1.405       .  A
C1155      H1166   1.083       .  S
C1156      C1157   1.405       .  A
C1157      C1158   1.392       .  A
C1157      H1167   1.083       .  S
C1158      H1168   1.082       .  S
C1169      C1170   1.403       .  A
C1169      C1174   1.403       .  A
C1170      C1171   1.399       .  A
C1170      H1183   1.083       .  S
C1171      C1172   1.404       .  A
C1171      H1184   1.083       .  S
C1172      C1173   1.408       .  A
C1172      C1175   1.484       .  S
C1173      C1174   1.396       .  A
C1173      H1185   1.082       .  S
C1174      H1186   1.083       .  S
C1175      C1176   1.345       .  D
C1175      H1187   1.085       .  S
C1176      C1177   1.483       .  S
C1176      H1188   1.086       .  S
C1177      C1178   1.401       .  A
C1177      C1182   1.409       .  A
C1178      C1179   1.393       .  A
C1178      H1189   1.084       .  S
C1179      C1180   1.406       .  A
C1179      H1190   1.083       .  S
C1180      C1181   1.406       .  A
C1181      C1182   1.401       .  A
C1181      H1191   1.083       .  S
C1182      H1192   1.081       .  S
C1193      C1194   1.406       .  A
C1193      C1198   1.406       .  A
C1194      C1195   1.395       .  A
C1194      H1207   1.083       .  S
C1195      C1196   1.403       .  A
C1195      H1208   1.084       .  S
C1196      C1197   1.408       .  A
C1196      C1199   1.487       .  S
C1197      C1198   1.401       .  A
C1197      H1209   1.081       .  S
C1198      H1210   1.083       .  S
C1199      C1200   1.349       .  D
C1199      H1211   1.085       .  S
C1200      C1201   1.488       .  S
C1200      H1212   1.085       .  S
C1201      C1202   1.406       .  A
C1201      C1206   1.408       .  A
C1202      C1203   1.401       .  A
C1202      H1213   1.083       .  S
C1203      C1204   1.403       .  A
C1203      H1214   1.083       .  S
C1204      C1205   1.402       .  A
C1205      C1206   1.395       .  A
C1205      H1215   1.083       .  S
C1206      H1216   1.081       .  S
C1217      C1218   1.400       .  A
C1217      C1222   1.403       .  A
C1218      C1219   1.395       .  A
C1218      H1231   1.083       .  S
C1219      C1220   1.405       .  A
C1219      H1232   1.083       .  S
C1220      C1221   1.411       .  A
C1220      C1223   1.489       .  S
C1221      C1222   1.403       .  A
C1221      H1233   1.081       .  S
C1222      H1234   1.083       .  S
C1223      C1224   1.350       .  D
C1223      H1235   1.083       .  S
C1224      C1225   1.495       .  S
C1224      H1236   1.085       .  S
C1225      C1226   1.406       .  A
C1225      C1230   1.409       .  A
C1226      C1227   1.403       .  A
C1226      H1237   1.083       .  S
C1227      C1228   1.406       .  A
C1227      H1238   1.083       .  S
C1228      C1229   1.406       .  A
C1229      C1230   1.397       .  A
C1229      H1239   1.083       .  S
C1230      H1240   1.080       .  S
C1241      C1242   1.407       .  A
C1241      C1246   1.406       .  A
C1242      C1243   1.401       .  A
C1242      H1255   1.083       .  S
C1243      C1244   1.404       .  A
C1243      H1256   1.083       .  S
C1244      C1245   1.406       .  A
C1244      C1247   1.487       .  S
C1245      C1246   1.398       .  A
C1245      H1257   1.082       .  S
C1246      H1258   1.083       .  S
C1247      C1248   1.346       .  D
C1247      H1259   1.086       .  S
C1248      C1249   1.485       .  S
C1248      H1260   1.086       .  S
C1249      C1250   1.403   1_554  A
C1249      C1254   1.408   1_554  A
C1250      C1251   1.397       .  A
C1250      H1261   1.083       .  S
C1251      C1252   1.401       .  A
C1251      H1262   1.083       .  S
C1252      C1253   1.403       .  A
C1253      C1254   1.402       .  A
C1253      H1263   1.083       .  S
C1254      H1264   1.082   1_556  S
C1265      C1266   1.402       .  A
C1265      C1270   1.404       .  A
C1266      C1267   1.393       .  A
C1266      H1279   1.083       .  S
C1267      C1268   1.403       .  A
C1267      H1280   1.083       .  S
C1268      C1269   1.410       .  A
C1268      C1271   1.485   1_556  S
C1269      C1270   1.401       .  A
C1269      H1281   1.081   1_556  S
C1270      H1282   1.083       .  S
C1271      C1272   1.347       .  D
C1271      H1283   1.084       .  S
C1272      C1273   1.488       .  S
C1272      H1284   1.085       .  S
C1273      C1274   1.403       .  A
C1273      C1278   1.409       .  A
C1274      C1275   1.398       .  A
C1274      H1285   1.083       .  S
C1275      C1276   1.406       .  A
C1275      H1286   1.083       .  S
C1276      C1277   1.405       .  A
C1277      C1278   1.397       .  A
C1277      H1287   1.083       .  S
C1278      H1288   1.081       .  S
C1289      C1290   1.405       .  A
C1289      C1294   1.406       .  A
C1290      C1291   1.394       .  A
C1290      H1303   1.083       .  S
C1291      C1292   1.401       .  A
C1291      H1304   1.084       .  S
C1292      C1293   1.409       .  A
C1292      C1295   1.483       .  S
C1293      C1294   1.400       .  A
C1293      H1305   1.081       .  S
C1294      H1306   1.083       .  S
C1295      C1296   1.345       .  D
C1295      H1307   1.086       .  S
C1296      C1297   1.484       .  S
C1296      H1308   1.085       .  S
C1297      C1298   1.404       .  A
C1297      C1302   1.409       .  A
C1298      C1299   1.398       .  A
C1298      H1309   1.083       .  S
C1299      C1300   1.404       .  A
C1299      H1310   1.083       .  S
C1300      C1301   1.401       .  A
C1301      C1302   1.394       .  A
C1301      H1311   1.083       .  S
C1302      H1312   1.081       .  S
C1313      C1314   1.405       .  A
C1313      C1318   1.406       .  A
C1314      C1315   1.398       .  A
C1314      H1327   1.083       .  S
C1315      C1316   1.403       .  A
C1315      H1328   1.083       .  S
C1316      C1317   1.406       .  A
C1316      C1319   1.482       .  S
C1317      C1318   1.398       .  A
C1317      H1329   1.082       .  S
C1318      H1330   1.083       .  S
C1319      C1320   1.346       .  D
C1319      H1331   1.087       .  S
C1320      C1321   1.481       .  S
C1320      H1332   1.086       .  S
C1321      C1322   1.404       .  A
C1321      C1326   1.407       .  A
C1322      C1323   1.399       .  A
C1322      H1333   1.083       .  S
C1323      C1324   1.401       .  A
C1323      H1334   1.083       .  S
C1324      C1325   1.401       .  A
C1325      C1326   1.396       .  A
C1325      H1335   1.083       .  S
C1326      H1336   1.082       .  S
C1337      C1338   1.403       .  A
C1337      C1342   1.403       .  A
C1338      C1339   1.395       .  A
C1338      H1351   1.083       .  S
C1339      C1340   1.403       .  A
C1339      H1352   1.083       .  S
C1340      C1341   1.408       .  A
C1340      C1343   1.482       .  S
C1341      C1342   1.400       .  A
C1341      H1353   1.082       .  S
C1342      H1354   1.083       .  S
C1343      C1344   1.346       .  D
C1343      H1355   1.086       .  S
C1344      C1345   1.484       .  S
C1344      H1356   1.086       .  S
C1345      C1346   1.403       .  A
C1345      C1350   1.406       .  A
C1346      C1347   1.399       .  A
C1346      H1357   1.083       .  S
C1347      C1348   1.406       .  A
C1347      H1358   1.083       .  S
C1348      C1349   1.407       .  A
C1349      C1350   1.398       .  A
C1349      H1359   1.083       .  S
C1350      H1360   1.082       .  S
C1361      C1362   1.405       .  A
C1361      C1366   1.405       .  A
C1362      C1363   1.394       .  A
C1362      H1375   1.083       .  S
C1363      C1364   1.402       .  A
C1363      H1376   1.084       .  S
C1364      C1365   1.409       .  A
C1364      C1367   1.484       .  S
C1365      C1366   1.399       .  A
C1365      H1377   1.081       .  S
C1366      H1378   1.083       .  S
C1367      C1368   1.346       .  D
C1367      H1379   1.086       .  S
C1368      C1369   1.484   1_554  S
C1368      H1380   1.084       .  S
C1369      C1370   1.404       .  A
C1369      C1374   1.409       .  A
C1370      C1371   1.397       .  A
C1370      H1381   1.083   1_556  S
C1371      C1372   1.403       .  A
C1371      H1382   1.083       .  S
C1372      C1373   1.400       .  A
C1373      C1374   1.395       .  A
C1373      H1383   1.083       .  S
C1374      H1384   1.082       .  S
C1385      C1386   1.406       .  A
C1385      C1390   1.405       .  A
C1386      C1387   1.394       .  A
C1386      H1399   1.083       .  S
C1387      C1388   1.403       .  A
C1387      H1400   1.084       .  S
C1388      C1389   1.411       .  A
C1388      C1391   1.490       .  S
C1389      C1390   1.401       .  A
C1389      H1401   1.080       .  S
C1390      H1402   1.083       .  S
C1391      C1392   1.349       .  D
C1391      H1403   1.084       .  S
C1392      C1393   1.491       .  S
C1392      H1404   1.083       .  S
C1393      C1394   1.406       .  A
C1393      C1398   1.411   1_554  A
C1394      C1395   1.399   1_554  A
C1394      H1405   1.083       .  S
C1395      C1396   1.401       .  A
C1395      H1406   1.083       .  S
C1396      C1397   1.401       .  A
C1397      C1398   1.397       .  A
C1397      H1407   1.083       .  S
C1398      H1408   1.080       .  S
C1409      C1410   1.407       .  A
C1409      C1414   1.404       .  A
C1410      C1411   1.399       .  A
C1410      H1423   1.083       .  S
C1411      C1412   1.403       .  A
C1411      H1424   1.083       .  S
C1412      C1413   1.406       .  A
C1412      C1415   1.481       .  S
C1413      C1414   1.392       .  A
C1413      H1425   1.082       .  S
C1414      H1426   1.083       .  S
C1415      C1416   1.346       .  D
C1415      H1427   1.085       .  S
C1416      C1417   1.480       .  S
C1416      H1428   1.086       .  S
C1417      C1418   1.403       .  A
C1417      C1422   1.409       .  A
C1418      C1419   1.392       .  A
C1418      H1429   1.083       .  S
C1419      C1420   1.400       .  A
C1419      H1430   1.083       .  S
C1420      C1421   1.402       .  A
C1421      C1422   1.398       .  A
C1421      H1431   1.083       .  S
C1422      H1432   1.081       .  S
C1433      C1434   1.405       .  A
C1433      C1438   1.407       .  A
C1434      C1435   1.396       .  A
C1434      H1447   1.083       .  S
C1435      C1436   1.402       .  A
C1435      H1448   1.083       .  S
C1436      C1437   1.407       .  A
C1436      C1439   1.485       .  S
C1437      C1438   1.402       .  A
C1437      H1449   1.082       .  S
C1438      H1450   1.083       .  S
C1439      C1440   1.346       .  D
C1439      H1451   1.087       .  S
C1440      C1441   1.486       .  S
C1440      H1452   1.086       .  S
C1441      C1442   1.405       .  A
C1441      C1446   1.407       .  A
C1442      C1443   1.402       .  A
C1442      H1453   1.083       .  S
C1443      C1444   1.403       .  A
C1443      H1454   1.083       .  S
C1444      C1445   1.401       .  A
C1445      C1446   1.398       .  A
C1445      H1455   1.083       .  S
C1446      H1456   1.083       .  S
C1457      C1458   1.402       .  A
C1457      C1462   1.403       .  A
C1458      C1459   1.394       .  A
C1458      H1471   1.083       .  S
C1459      C1460   1.402       .  A
C1459      H1472   1.083       .  S
C1460      C1461   1.407       .  A
C1460      C1463   1.477       .  S
C1461      C1462   1.399       .  A
C1461      H1473   1.083       .  S
C1462      H1474   1.083       .  S
C1463      C1464   1.344       .  D
C1463      H1475   1.086       .  S
C1464      C1465   1.481       .  S
C1464      H1476   1.086       .  S
C1465      C1466   1.403       .  A
C1465      C1470   1.405       .  A
C1466      C1467   1.399       .  A
C1466      H1477   1.083       .  S
C1467      C1468   1.405       .  A
C1467      H1478   1.083       .  S
C1468      C1469   1.404       .  A
C1469      C1470   1.394       .  A
C1469      H1479   1.083       .  S
C1470      H1480   1.082       .  S
C1481      C1482   1.401       .  A
C1481      C1486   1.400       .  A
C1482      C1483   1.398       .  A
C1482      H1495   1.083       .  S
C1483      C1484   1.405       .  A
C1483      H1496   1.083   1_556  S
C1484      C1485   1.408       .  A
C1484      C1487   1.483   1_556  S
C1485      C1486   1.392       .  A
C1485      H1497   1.081       .  S
C1486      H1498   1.084       .  S
C1487      C1488   1.346       .  D
C1487      H1499   1.085       .  S
C1488      C1489   1.481       .  S
C1488      H1500   1.085       .  S
C1489      C1490   1.402       .  A
C1489      C1494   1.407       .  A
C1490      C1491   1.393       .  A
C1490      H1501   1.084       .  S
C1491      C1492   1.404       .  A
C1491      H1502   1.083       .  S
C1492      C1493   1.406       .  A
C1493      C1494   1.397       .  A
C1493      H1503   1.083       .  S
C1494      H1504   1.081       .  S
C1505      C1506   1.405       .  A
C1505      C1510   1.404       .  A
C1506      C1507   1.393       .  A
C1506      H1519   1.083       .  S
C1507      C1508   1.402       .  A
C1507      H1520   1.084       .  S
C1508      C1509   1.409       .  A
C1508      C1511   1.484       .  S
C1509      C1510   1.398       .  A
C1509      H1521   1.080       .  S
C1510      H1522   1.083       .  S
C1511      C1512   1.346       .  D
C1511      H1523   1.085       .  S
C1512      C1513   1.483   1_554  S
C1512      H1524   1.084       .  S
C1513      C1514   1.404       .  A
C1513      C1518   1.408       .  A
C1514      C1515   1.398       .  A
C1514      H1525   1.083       .  S
C1515      C1516   1.401       .  A
C1515      H1526   1.083       .  S
C1516      C1517   1.401       .  A
C1517      C1518   1.394       .  A
C1517      H1527   1.084       .  S
C1518      H1528   1.081   1_556  S
C1529      C1530   1.406       .  A
C1529      C1534   1.406       .  A
C1530      C1531   1.400       .  A
C1530      H1543   1.083       .  S
C1531      C1532   1.404       .  A
C1531      H1544   1.083       .  S
C1532      C1533   1.407       .  A
C1532      C1535   1.487       .  S
C1533      C1534   1.395       .  A
C1533      H1545   1.081       .  S
C1534      H1546   1.083       .  S
C1535      C1536   1.348       .  D
C1535      H1547   1.083       .  S
C1536      C1537   1.489       .  S
C1536      H1548   1.085       .  S
C1537      C1538   1.405       .  A
C1537      C1542   1.411       .  A
C1538      C1539   1.395       .  A
C1538      H1549   1.083       .  S
C1539      C1540   1.402       .  A
C1539      H1550   1.083       .  S
C1540      C1541   1.402       .  A
C1541      C1542   1.400       .  A
C1541      H1551   1.083       .  S
C1542      H1552   1.079       .  S
C1553      C1554   1.405       .  A
C1553      C1558   1.405       .  A
C1554      C1555   1.395       .  A
C1554      H1567   1.083       .  S
C1555      C1556   1.403       .  A
C1555      H1568   1.084       .  S
C1556      C1557   1.410       .  A
C1556      C1559   1.489       .  S
C1557      C1558   1.400       .  A
C1557      H1569   1.080       .  S
C1558      H1570   1.083       .  S
C1559      C1560   1.348       .  D
C1559      H1571   1.085       .  S
C1560      C1561   1.488       .  S
C1560      H1572   1.083       .  S
C1561      C1562   1.405       .  A
C1561      C1566   1.409       .  A
C1562      C1563   1.399       .  A
C1562      H1573   1.083       .  S
C1563      C1564   1.402       .  A
C1563      H1574   1.083       .  S
C1564      C1565   1.403       .  A
C1565      C1566   1.397       .  A
C1565      H1575   1.083       .  S
C1566      H1576   1.081       .  S
C1577      C1578   1.406       .  A
C1577      C1582   1.404       .  A
C1578      C1579   1.397       .  A
C1578      H1591   1.083       .  S
C1579      C1580   1.403       .  A
C1579      H1592   1.083       .  S
C1580      C1581   1.406       .  A
C1580      C1583   1.481       .  S
C1581      C1582   1.393       .  A
C1581      H1593   1.081       .  S
C1582      H1594   1.083       .  S
C1583      C1584   1.347       .  D
C1583      H1595   1.082       .  S
C1584      C1585   1.486       .  S
C1584      H1596   1.085       .  S
C1585      C1586   1.406       .  A
C1585      C1590   1.411       .  A
C1586      C1587   1.395       .  A
C1586      H1597   1.083       .  S
C1587      C1588   1.399       .  A
C1587      H1598   1.083       .  S
C1588      C1589   1.398       .  A
C1589      C1590   1.395       .  A
C1589      H1599   1.083       .  S
C1590      H1600   1.079       .  S
C1601      C1602   1.403       .  A
C1601      C1606   1.402       .  A
C1602      C1603   1.396   1_556  A
C1602      H1615   1.083       .  S
C1603      C1604   1.403       .  A
C1603      H1616   1.083       .  S
C1604      C1605   1.409   1_554  A
C1604      C1607   1.484       .  S
C1605      C1606   1.399       .  A
C1605      H1617   1.082       .  S
C1606      H1618   1.083       .  S
C1607      C1608   1.346       .  D
C1607      H1619   1.086       .  S
C1608      C1609   1.483       .  S
C1608      H1620   1.086       .  S
C1609      C1610   1.401       .  A
C1609      C1614   1.407       .  A
C1610      C1611   1.396       .  A
C1610      H1621   1.084       .  S
C1611      C1612   1.406       .  A
C1611      H1622   1.083       .  S
C1612      C1613   1.406       .  A
C1613      C1614   1.399       .  A
C1613      H1623   1.083       .  S
C1614      H1624   1.082       .  S
C1625      C1626   1.407       .  A
C1625      C1630   1.404       .  A
C1626      C1627   1.392       .  A
C1626      H1639   1.083       .  S
C1627      C1628   1.399       .  A
C1627      H1640   1.084       .  S
C1628      C1629   1.409       .  A
C1628      C1631   1.479       .  S
C1629      C1630   1.398       .  A
C1629      H1641   1.081       .  S
C1630      H1642   1.083       .  S
C1631      C1632   1.343       .  D
C1631      H1643   1.085       .  S
C1632      C1633   1.480       .  S
C1632      H1644   1.085       .  S
C1633      C1634   1.404       .  A
C1633      C1638   1.409   1_554  A
C1634      C1635   1.396   1_554  A
C1634      H1645   1.083       .  S
C1635      C1636   1.401       .  A
C1635      H1646   1.083       .  S
C1636      C1637   1.400       .  A
C1637      C1638   1.392       .  A
C1637      H1647   1.084       .  S
C1638      H1648   1.081       .  S
C1649      C1650   1.404       .  A
C1649      C1654   1.403       .  A
C1650      C1651   1.397       .  A
C1650      H1663   1.083       .  S
C1651      C1652   1.403       .  A
C1651      H1664   1.083       .  S
C1652      C1653   1.409       .  A
C1652      C1655   1.486       .  S
C1653      C1654   1.399       .  A
C1653      H1665   1.082       .  S
C1654      H1666   1.083       .  S
C1655      C1656   1.347       .  D
C1655      H1667   1.086       .  S
C1656      C1657   1.486       .  S
C1656      H1668   1.086       .  S
C1657      C1658   1.403       .  A
C1657      C1662   1.407       .  A
C1658      C1659   1.399       .  A
C1658      H1669   1.083       .  S
C1659      C1660   1.406       .  A
C1659      H1670   1.083       .  S
C1660      C1661   1.408       .  A
C1661      C1662   1.399       .  A
C1661      H1671   1.083       .  S
C1662      H1672   1.082       .  S
C1673      C1674   1.405       .  A
C1673      C1678   1.407       .  A
C1674      C1675   1.393       .  A
C1674      H1687   1.083       .  S
C1675      C1676   1.401       .  A
C1675      H1688   1.084       .  S
C1676      C1677   1.409       .  A
C1676      C1679   1.487       .  S
C1677      C1678   1.407       .  A
C1677      H1689   1.082       .  S
C1678      H1690   1.083       .  S
C1679      C1680   1.349       .  D
C1679      H1691   1.083       .  S
C1680      C1681   1.496       .  S
C1680      H1692   1.085       .  S
C1681      C1682   1.408       .  A
C1681      C1686   1.411       .  A
C1682      C1683   1.403       .  A
C1682      H1693   1.083       .  S
C1683      C1684   1.402       .  A
C1683      H1694   1.083       .  S
C1684      C1685   1.400       .  A
C1685      C1686   1.396       .  A
C1685      H1695   1.084       .  S
C1686      H1696   1.080       .  S
C1697      C1698   1.402       .  A
C1697      C1702   1.402       .  A
C1698      C1699   1.394       .  A
C1698      H1711   1.083       .  S
C1699      C1700   1.403       .  A
C1699      H1712   1.083       .  S
C1700      C1701   1.411       .  A
C1700      C1703   1.486       .  S
C1701      C1702   1.399       .  A
C1701      H1713   1.080       .  S
C1702      H1714   1.083       .  S
C1703      C1704   1.346       .  D
C1703      H1715   1.085       .  S
C1704      C1705   1.484       .  S
C1704      H1716   1.084       .  S
C1705      C1706   1.402       .  A
C1705      C1710   1.408       .  A
C1706      C1707   1.397       .  A
C1706      H1717   1.083       .  S
C1707      C1708   1.406       .  A
C1707      H1718   1.083       .  S
C1708      C1709   1.405       .  A
C1709      C1710   1.396       .  A
C1709      H1719   1.083       .  S
C1710      H1720   1.081       .  S
C1721      C1722   1.402       .  A
C1721      C1726   1.403       .  A
C1722      C1723   1.396       .  A
C1722      H1735   1.083       .  S
C1723      C1724   1.402       .  A
C1723      H1736   1.083       .  S
C1724      C1725   1.407       .  A
C1724      C1727   1.481       .  S
C1725      C1726   1.401       .  A
C1725      H1737   1.082       .  S
C1726      H1738   1.083       .  S
C1727      C1728   1.346       .  D
C1727      H1739   1.086       .  S
C1728      C1729   1.484       .  S
C1728      H1740   1.086       .  S
C1729      C1730   1.404       .  A
C1729      C1734   1.406       .  A
C1730      C1731   1.400       .  A
C1730      H1741   1.083       .  S
C1731      C1732   1.406       .  A
C1731      H1742   1.083       .  S
C1732      C1733   1.405       .  A
C1733      C1734   1.396       .  A
C1733      H1743   1.083       .  S
C1734      H1744   1.082       .  S
