geometry optimzed in LAMMPS
_audit_creation_date              2020-11-30 
_audit_creation_method            'lammps2cif' 
_symmetry_space_group_name_H-M    'P1' 
_symmetry_Int_Tables_number       1 
_symmetry_cell_setting            triclinic 
loop_ 
_symmetry_equiv_pos_as_xyz 
  x,y,z 
_cell_length_a                    49.09269323 
_cell_length_b                    49.06532163800131 
_cell_length_c                    47.24630514313087 
_cell_angle_alpha                 90.00957177303627 
_cell_angle_beta                  89.93277157195749 
_cell_angle_gamma                 89.99844796191975 
loop_ 
_atom_site_label 
_atom_site_type_symbol 
_atom_site_fract_x 
_atom_site_fract_y 
_atom_site_fract_z 
_atom_site_charge 
O1          O  0.46474566  0.31864443  0.96832100    -0.71900
O2          O  0.41248303  0.30828544  0.02624695    -0.72100
O3          O  0.46573010  0.32007320  0.02510695    -0.72000
O4          O  0.41155615  0.30689441  0.96977281    -0.72000
O5          O  0.42202779  0.26386139  0.96944439    -0.71900
O6          O  0.47458640  0.27675035  0.02688336    -0.71900
O7          O  0.42133279  0.26490330  0.02673205    -0.71900
O8          O  0.47528830  0.27569480  0.97001831    -0.72100
V9          V  0.43884374  0.31261342  0.99738412     1.35200
V10         V  0.44808789  0.27110017  0.99826441     1.35200
C11         C  0.47894817  0.29900444  0.95924647     0.77400
C12         C  0.40795116  0.28489931  0.03637805     0.77400
C13         C  0.47921160  0.30064664  0.03569424     0.77300
C14         C  0.40785751  0.28328813  0.95982920     0.77200
O15         O  0.25606504  0.58521768  0.02205191    -0.71900
O16         O  0.23480961  0.52829536  0.97266019    -0.72100
O17         O  0.25099836  0.58009634  0.96625537    -0.72000
O18         O  0.24004431  0.53337239  0.02896547    -0.72000
O19         O  0.19766426  0.54582682  0.03135451    -0.71900
O20         O  0.20910378  0.59407469  0.96931431    -0.71900
O21         O  0.19285285  0.54216267  0.97479756    -0.71900
O22         O  0.21381783  0.59790358  0.02599166    -0.72100
V23         V  0.24460918  0.55693547  0.99755892     1.35200
V24         V  0.20414564  0.56973470  0.00033429     1.35200
C25         C  0.23859435  0.60131559  0.03234666     0.77400
C26         C  0.21030669  0.52582170  0.96485168     0.77400
C27         C  0.23215276  0.59535639  0.95734688     0.77300
C28         C  0.21704707  0.53150393  0.04085919     0.77200
O29         O  0.53818435  0.87020986  0.03170219    -0.71900
O30         O  0.58505067  0.88278032  0.96956783    -0.72100
O31         O  0.59181697  0.87610931  0.02509401    -0.72000
O32         O  0.53134127  0.87687774  0.97618176    -0.72000
O33         O  0.52788333  0.92078193  0.98064262    -0.71900
O34         O  0.58691040  0.91944770  0.03288746    -0.71900
O35         O  0.58257032  0.92643954  0.97654836    -0.71900
O36         O  0.53240148  0.91377594  0.03700043    -0.72100
V37         V  0.56151085  0.87742168  0.00073174     1.35200
V38         V  0.55752499  0.91936334  0.00663782     1.35200
C39         C  0.52697982  0.88966660  0.04479361     0.77400
C40         C  0.59230468  0.90657813  0.96270255     0.77400
C41         C  0.59946407  0.89741005  0.03775082     0.77300
C42         C  0.51926845  0.89876946  0.96992782     0.77200
O43         O  0.75499161  0.60958168  0.02961183    -0.71900
O44         O  0.76520520  0.66219583  0.97202853    -0.72100
O45         O  0.75026597  0.60985995  0.97307950    -0.72000
O46         O  0.77011066  0.66227078  0.02838401    -0.72000
O47         O  0.81233999  0.64931780  0.02538861    -0.71900
O48         O  0.79268132  0.59808938  0.96857293    -0.71900
O49         O  0.80778060  0.65070592  0.96847179    -0.71900
O50         O  0.79713207  0.59679891  0.02524208    -0.72100
V51         V  0.76099626  0.63573239  0.00076245     1.35200
V52         V  0.80169545  0.62398860  0.99700232     1.35200
C53         C  0.77416546  0.59396213  0.03704500     0.77400
C54         C  0.78809567  0.66535174  0.96024981     0.77400
C55         C  0.76809499  0.59521756  0.96114416     0.77300
C56         C  0.79456048  0.66468626  0.03637628     0.77200
O57         O  0.28307382  0.09646653  0.52848972    -0.71900
O58         O  0.30547694  0.04261110  0.47543428    -0.72100
O59         O  0.28799941  0.09455720  0.47170499    -0.72000
O60         O  0.30053148  0.04479512  0.53208025    -0.72000
O61         O  0.25830194  0.03187122  0.52971134    -0.71900
O62         O  0.24677840  0.07911668  0.46734444    -0.71900
O63         O  0.26388223  0.02768557  0.47346522    -0.71900
O64         O  0.24107917  0.08336081  0.52339710    -0.72100
V65         V  0.29350339  0.06935832  0.50182553     1.35200
V66         V  0.25336616  0.05574754  0.49856256     1.35200
C67         C  0.25815033  0.09921170  0.53469136     0.77400
C68         C  0.28840132  0.02580204  0.46558009     0.77400
C69         C  0.26523582  0.09525486  0.45914051     0.77300
C70         C  0.28136380  0.03013434  0.54149160     0.77200
O71         O  0.03482251  0.78863833  0.53459818    -0.71900
O72         O  0.08496667  0.77909841  0.47375442    -0.72100
O73         O  0.08861971  0.77891410  0.53088797    -0.72000
O74         O  0.03120321  0.78882107  0.47791172    -0.72000
O75         O  0.03759711  0.83257568  0.47981011    -0.71900
O76         O  0.09810116  0.82207188  0.52792119    -0.71900
O77         O  0.09048227  0.82296419  0.47187655    -0.71900
O78         O  0.04498732  0.83169463  0.53589843    -0.72100
V79         V  0.06010147  0.78462432  0.50429391     1.35200
V80         V  0.06765704  0.82644900  0.50391632     1.35200
C81         C  0.03157273  0.81186444  0.54575983     0.77400
C82         C  0.09560141  0.79964228  0.46185962     0.77400
C83         C  0.10331219  0.79889546  0.53818316     0.77300
C84         C  0.02440381  0.81253781  0.47014937     0.77200
O85         O  0.70474995  0.09430394  0.52448005    -0.71900
O86         O  0.68289424  0.14671303  0.46982825    -0.72100
O87         O  0.69770111  0.09375757  0.46799145    -0.72000
O88         O  0.69013589  0.14698496  0.52622357    -0.72000
O89         O  0.73288369  0.15738241  0.52149211    -0.71900
O90         O  0.73930071  0.10715284  0.46092780    -0.71900
O91         O  0.72499872  0.15958833  0.46531060    -0.71900
O92         O  0.74712331  0.10477875  0.51681744    -0.72100
V93         V  0.69464272  0.12066707  0.49698486     1.35200
V94         V  0.73522005  0.13204951  0.49127047     1.35200
C95         C  0.72971375  0.09032402  0.52958318     0.77400
C96         C  0.70027494  0.16223322  0.45838999     0.77400
C97         C  0.71988486  0.09143432  0.45447879     0.77300
C98         C  0.71044875  0.16089754  0.53415248     0.77200
O99         O  0.97499022  0.41314597  0.47374326    -0.71900
O100        O  0.91777381  0.41790358  0.52818048    -0.72100
O101        O  0.97220863  0.41091845  0.53050256    -0.72000
O102        O  0.92071163  0.42015682  0.47106914    -0.72000
O103        O  0.91635202  0.37620792  0.46823425    -0.71900
O104        O  0.96526554  0.36722611  0.52913261    -0.71900
O105        O  0.91160310  0.37422873  0.52462442    -0.71900
O106        O  0.97003406  0.36918431  0.47289207    -0.72100
V107        V  0.94625983  0.41476254  0.50084155     1.35200
V108        V  0.94089418  0.37263101  0.49876009     1.35200
C109        C  0.98242905  0.39017070  0.46430560     0.77400
C110        C  0.90504266  0.39667692  0.53579065     0.77400
C111        C  0.97741929  0.38736268  0.53995983     0.77300
C112        C  0.91018981  0.39960299  0.45913539     0.77200
O113        O  0.14819150  0.31144545  0.26448759    -0.71900
O114        O  0.20304393  0.28850847  0.21345815    -0.72100
O115        O  0.18234451  0.26858125  0.26214162    -0.72000
O116        O  0.16938008  0.33111170  0.21607543    -0.72000
O117        O  0.20028463  0.35319326  0.23958184    -0.71900
O118        O  0.21149628  0.29194187  0.28670687    -0.71900
O119        O  0.23353526  0.31007875  0.23807619    -0.71900
O120        O  0.17799962  0.33506491  0.28791898    -0.72100
V121        V  0.17629210  0.30029508  0.23957138     1.35200
V122        V  0.20522890  0.32208320  0.26264388     1.35200
C123        C  0.15358490  0.32742649  0.28469379     0.77400
C124        C  0.22750664  0.29584711  0.21663952     0.77400
C125        C  0.19907093  0.26976707  0.28250830     0.77300
C126        C  0.18320853  0.35263358  0.21961347     0.77200
O127        O  0.70265177  0.32868674  0.24760652    -0.71900
O128        O  0.72025448  0.38963594  0.20185560    -0.72100
O129        O  0.74250109  0.36583932  0.24737481    -0.72000
O130        O  0.68042178  0.35235329  0.20209438    -0.72000
O131        O  0.65582047  0.37758959  0.22990660    -0.71900
O132        O  0.71858159  0.39265879  0.27421751    -0.71900
O133        O  0.69524352  0.41551077  0.22862038    -0.71900
O134        O  0.67919102  0.35479466  0.27561126    -0.72100
V135        V  0.71095725  0.35965434  0.22525253     1.35200
V136        V  0.68765890  0.38465470  0.25155935     1.35200
C137        C  0.68830859  0.33137171  0.26967184     0.77400
C138        C  0.71063483  0.41295692  0.20730090     0.77400
C139        C  0.74116659  0.38147180  0.26857991     0.77300
C140        C  0.65751924  0.36250954  0.20826146     0.77200
O141        O  0.68078349  0.35255500  0.72553829    -0.71900
O142        O  0.69541831  0.40794526  0.77999217    -0.72100
O143        O  0.71477812  0.39520754  0.72841410    -0.72000
O144        O  0.66106843  0.36524471  0.77678151    -0.72000
O145        O  0.69167979  0.34019132  0.79731729    -0.71900
O146        O  0.74518785  0.36858395  0.74704717    -0.71900
O147        O  0.72678559  0.38237787  0.79850789    -0.71900
O148        O  0.71057644  0.32646187  0.74595526    -0.72100
V149        V  0.68857696  0.37976942  0.75313849     1.35200
V150        V  0.71794192  0.35492648  0.77188952     1.35200
C151        C  0.69335379  0.33003988  0.72645243     0.77400
C152        C  0.71408356  0.40476664  0.79817866     0.77400
C153        C  0.73901510  0.38658671  0.72896641     0.77300
C154        C  0.66705213  0.34750247  0.79512231     0.77200
O155        O  0.77730287  0.88130437  0.29706557    -0.71900
O156        O  0.79710576  0.82020676  0.25191087    -0.72100
O157        O  0.81284847  0.83980069  0.30246171    -0.72000
O158        O  0.76179495  0.86157035  0.24664907    -0.72000
O159        O  0.79251468  0.88739025  0.22725372    -0.71900
O160        O  0.84435813  0.86248324  0.28038951    -0.71900
O161        O  0.82680957  0.84515356  0.22978839    -0.71900
O162        O  0.80986922  0.90483134  0.27780870    -0.72100
V163        V  0.78786611  0.85117500  0.27417825     1.35200
V164        V  0.81781132  0.87448653  0.25427170     1.35200
C165        C  0.79028750  0.90351138  0.29517928     0.77400
C166        C  0.81480529  0.82250594  0.23256301     0.77400
C167        C  0.83748239  0.84710434  0.30061682     0.77300
C168        C  0.76844163  0.87833534  0.22752361     0.77200
O169        O  0.81428513  0.85000353  0.70124190    -0.71900
O170        O  0.75577205  0.87186017  0.74855764    -0.72100
O171        O  0.77783600  0.89053440  0.70026851    -0.72000
O172        O  0.79222574  0.83133796  0.74950948    -0.72000
O173        O  0.82098319  0.85631072  0.77286113    -0.71900
O174        O  0.80403405  0.91656921  0.72559002    -0.71900
O175        O  0.78357023  0.89613340  0.77385594    -0.71900
O176        O  0.84166727  0.87644729  0.72464167    -0.72100
V177        V  0.78557814  0.86144941  0.72535137     1.35200
V178        V  0.81207229  0.88591019  0.74871333     1.35200
C179        C  0.83796141  0.85950569  0.70481622     0.77400
C180        C  0.75972571  0.88726139  0.76963027     0.77400
C181        C  0.78811981  0.91373631  0.70476669     0.77300
C182        C  0.80901639  0.83370484  0.76962683     0.77200
O183        O  0.29184517  0.85761083  0.25521408    -0.71900
O184        O  0.28314302  0.79910196  0.20422633    -0.72100
O185        O  0.25904911  0.81416423  0.25270235    -0.72000
O186        O  0.31606248  0.84240998  0.20690071    -0.72000
O187        O  0.34544916  0.81836885  0.23043015    -0.71900
O188        O  0.28852584  0.79092499  0.27696858    -0.71900
O189        O  0.31190384  0.77482559  0.22838674    -0.71900
O190        O  0.32160233  0.83436399  0.27911224    -0.72100
V191        V  0.28812984  0.82783508  0.23023236     1.35200
V192        V  0.31637686  0.80506730  0.25321984     1.35200
C193        C  0.30790687  0.85601363  0.27599371     0.77400
C194        C  0.29570108  0.77691758  0.20768457     0.77400
C195        C  0.26407539  0.79799707  0.27290062     0.77300
C196        C  0.34049715  0.83516452  0.21076916     0.77200
O197        O  0.25881683  0.82434493  0.75504634    -0.71900
O198        O  0.31596617  0.85028012  0.80225892    -0.72100
O199        O  0.29322247  0.86674141  0.75355825    -0.72000
O200        O  0.28148307  0.80793478  0.80406393    -0.72000
O201        O  0.30813995  0.78234976  0.77869126    -0.71900
O202        O  0.32429403  0.84327683  0.73170952    -0.71900
O203        O  0.34427122  0.82356091  0.78037521    -0.71900
O204        O  0.28855811  0.80220931  0.72992277    -0.72100
V205        V  0.28790404  0.83683772  0.77831779     1.35200
V206        V  0.31578915  0.81329004  0.75568360     1.35200
C207        C  0.26418541  0.80953285  0.73381405     0.77400
C208        C  0.33988494  0.84106346  0.79946156     0.77400
C209        C  0.31087700  0.86518382  0.73412840     0.77300
C210        C  0.29237109  0.78497890  0.79971969     0.77200
O211        O  0.18696916  0.27594228  0.72965351    -0.71900
O212        O  0.17707911  0.33907329  0.77518235    -0.72100
O213        O  0.15600021  0.32115471  0.72624360    -0.72000
O214        O  0.20764255  0.29424977  0.77869018    -0.72000
O215        O  0.24021537  0.31362069  0.75494498    -0.71900
O216        O  0.18805660  0.34259134  0.70367276    -0.71900
O217        O  0.21015019  0.35901022  0.75272280    -0.71900
O218        O  0.21818566  0.29725313  0.70566486    -0.72100
V219        V  0.18250572  0.30796529  0.75191073     1.35200
V220        V  0.21352620  0.32768329  0.72967089     1.35200
C221        C  0.20417777  0.27602991  0.70971085     0.77400
C222        C  0.19248704  0.35953501  0.77217573     0.77400
C223        C  0.16308242  0.33679606  0.70629041     0.77300
C224        C  0.23267340  0.29967023  0.77608401     0.77200
C225        C  0.99736327  0.38299510  0.56281924    -0.03300
C226        C  0.99824709  0.35772182  0.57668933    -0.05900
C227        C  0.01769178  0.35268185  0.59745386    -0.21000
C228        C  0.03697180  0.37258422  0.60455537     0.24700
C229        C  0.03588497  0.39816040  0.59109472    -0.18500
C230        C  0.01613238  0.40333296  0.57041165    -0.08500
C231        C  0.05739353  0.36572092  0.62644458    -0.18800
C232        C  0.08209742  0.37745148  0.62834717    -0.23600
C233        C  0.10268635  0.36811874  0.64918081     0.26800
C234        C  0.13048446  0.37094951  0.64285472    -0.20400
C235        C  0.15026951  0.36097808  0.66147081    -0.10000
C236        C  0.14252037  0.34804368  0.68676139    -0.10600
C237        C  0.11474546  0.34596313  0.69345906    -0.03500
C238        C  0.09505070  0.35610727  0.67503953    -0.18600
H239        H  0.98391396  0.34172531  0.57143309     0.10500
H240        H  0.01794250  0.33292931  0.60770510     0.10600
H241        H  0.05000098  0.41422501  0.59662598     0.10200
H242        H  0.01580400  0.42303098  0.56007774     0.11300
H243        H  0.05253459  0.34863830  0.64014423     0.11400
H244        H  0.08822471  0.39265474  0.61291369     0.13300
H245        H  0.13687885  0.38036492  0.62320220     0.09900
H246        H  0.17157228  0.36300403  0.65587754     0.11900
H247        H  0.10818968  0.33658746  0.71307037     0.08600
H248        H  0.07389336  0.35458987  0.68125889     0.11300
C249        C  0.00491546  0.38746815  0.44370919    -0.03300
C250        C  0.01878813  0.41040780  0.43322045    -0.05900
C251        C  0.03970198  0.40729663  0.41327988    -0.21000
C252        C  0.04680088  0.38129484  0.40330900     0.24700
C253        C  0.03340028  0.35836825  0.41445597    -0.18500
C254        C  0.01265016  0.36144411  0.43429987    -0.08500
C255        C  0.06861122  0.37827799  0.38180965    -0.18800
C256        C  0.06830083  0.35784025  0.36279741    -0.23600
C257        C  0.09031395  0.35235627  0.34207461     0.26800
C258        C  0.08449642  0.33526224  0.31906905    -0.20400
C259        C  0.10496367  0.32757223  0.30020397    -0.10000
C260        C  0.13182270  0.33667396  0.30405552    -0.10600
C261        C  0.13766418  0.35413504  0.32682520    -0.03500
C262        C  0.11712565  0.36188080  0.34573131    -0.18600
H263        H  0.01338981  0.43069976  0.44028493     0.10500
H264        H  0.05004320  0.42521730  0.40528246     0.10600
H265        H  0.03909765  0.33794210  0.40814512     0.10200
H266        H  0.00265133  0.34332541  0.44227739     0.11300
H267        H  0.08453594  0.39359569  0.38117172     0.11400
H268        H  0.05072520  0.34440638  0.36205080     0.13300
H269        H  0.06406253  0.32750925  0.31587525     0.09900
H270        H  0.09979499  0.31413689  0.28283202     0.11900
H271        H  0.15820973  0.36141009  0.33034276     0.08600
H272        H  0.12258706  0.37452986  0.36358349     0.11300
C273        C  0.89142059  0.40245185  0.43492553    -0.03300
C274        C  0.88417431  0.42821374  0.42438209    -0.05900
C275        C  0.86646309  0.43044485  0.40131045    -0.21000
C276        C  0.85595722  0.40701385  0.38821996     0.24700
C277        C  0.86311669  0.38126326  0.39895620    -0.18500
C278        C  0.88071450  0.37904248  0.42194653    -0.08500
C279        C  0.83611805  0.40996650  0.36477931    -0.18800
C280        C  0.83190397  0.39027720  0.34542113    -0.23600
C281        C  0.80955845  0.39078945  0.32432447     0.26800
C282        C  0.81072992  0.37256544  0.30146729    -0.20400
C283        C  0.78885804  0.37019289  0.28277750    -0.10000
C284        C  0.76520582  0.38584724  0.28674938    -0.10600
C285        C  0.76422932  0.40457756  0.30918386    -0.03500
C286        C  0.78614044  0.40701823  0.32784019    -0.18600
H287        H  0.89209363  0.44660680  0.43400555     0.10500
H288        H  0.86094336  0.45050782  0.39365914     0.10600
H289        H  0.85464146  0.36273985  0.39022015     0.10200
H290        H  0.88576244  0.35889310  0.42969297     0.11300
H291        H  0.82480494  0.42891806  0.36360688     0.11400
H292        H  0.84522783  0.37261938  0.34510635     0.13300
H293        H  0.82840278  0.35966223  0.29841757     0.09900
H294        H  0.79017178  0.35550463  0.26571642     0.11900
H295        H  0.74622127  0.41685337  0.31278695     0.08600
H296        H  0.78402888  0.42078734  0.34556301     0.11300
C297        C  0.88369097  0.39738427  0.55788568    -0.03300
C298        C  0.87141370  0.37289874  0.56652559    -0.05900
C299        C  0.85322437  0.37251016  0.58913641    -0.21000
C300        C  0.84654167  0.39657115  0.60350116     0.24700
C301        C  0.85806277  0.42135321  0.59441099    -0.18500
C302        C  0.87655571  0.42172384  0.57175817    -0.08500
C303        C  0.82903950  0.39428715  0.62893651    -0.18800
C304        C  0.81381333  0.41462691  0.63959533    -0.23600
C305        C  0.79591328  0.40990713  0.66439628     0.26800
C306        C  0.76993680  0.42172595  0.66520574    -0.20400
C307        C  0.75166360  0.41492711  0.68682485    -0.10000
C308        C  0.75925026  0.39643419  0.70817296    -0.10600
C309        C  0.78585590  0.38597198  0.70826547    -0.03500
C310        C  0.80402775  0.39267709  0.68663207    -0.18600
H311        H  0.87641851  0.35377975  0.55630932     0.10500
H312        H  0.84464300  0.35317674  0.59573568     0.10600
H313        H  0.85369226  0.44022242  0.60536086     0.10200
H314        H  0.88579399  0.44087447  0.56561544     0.11300
H315        H  0.82760701  0.37422795  0.63859163     0.11400
H316        H  0.81262559  0.43406670  0.62870130     0.13300
H317        H  0.76337092  0.43525947  0.64843352     0.09900
H318        H  0.73132432  0.42345546  0.68629713     0.11900
H319        H  0.79240731  0.37195912  0.72460479     0.08600
H320        H  0.82428542  0.38396082  0.68703644     0.11300
C321        C  0.68886840  0.30861563  0.70491471    -0.03300
C322        C  0.67033518  0.31245483  0.68261695    -0.05900
C323        C  0.66795845  0.29292388  0.66113793    -0.21000
C324        C  0.68428231  0.26943246  0.66138054     0.24700
C325        C  0.70187782  0.26503509  0.68439585    -0.18500
C326        C  0.70418471  0.28444007  0.70584786    -0.08500
C327        C  0.68293790  0.25006079  0.63725357    -0.18800
C328        C  0.70480963  0.23557698  0.62883126    -0.23600
C329        C  0.70510887  0.21701281  0.60401466     0.26800
C330        C  0.73031105  0.21076309  0.59159113    -0.20400
C331        C  0.73191598  0.19288040  0.56868524    -0.10000
C332        C  0.70833185  0.18050647  0.55785653    -0.10600
C333        C  0.68303552  0.18660157  0.57032181    -0.03500
C334        C  0.68140021  0.20471245  0.59318752    -0.18600
H335        H  0.65810395  0.33078586  0.68144996     0.10500
H336        H  0.65397805  0.29657891  0.64382817     0.10600
H337        H  0.71398745  0.24666160  0.68586974     0.10200
H338        H  0.71838460  0.28068790  0.72293461     0.11300
H339        H  0.66426839  0.24937325  0.62500050     0.11400
H340        H  0.72408905  0.23860721  0.63963405     0.13300
H341        H  0.74889614  0.21979348  0.59963736     0.09900
H342        H  0.75173272  0.18849368  0.55967765     0.11900
H343        H  0.66453158  0.17723601  0.56252714     0.08600
H344        H  0.66168916  0.20848500  0.60265387     0.11300
C345        C  0.69220431  0.18270174  0.43711898    -0.03300
C346        C  0.66476051  0.19006285  0.43337789    -0.05900
C347        C  0.65748477  0.20923193  0.41276042    -0.21000
C348        C  0.67743856  0.22077408  0.39519393     0.24700
C349        C  0.70489825  0.21372058  0.39933975    -0.18500
C350        C  0.71217993  0.19493160  0.42007899    -0.08500
C351        C  0.66969797  0.24089064  0.37326548    -0.18800
C352        C  0.68316112  0.24220830  0.34848347    -0.23600
C353        C  0.68006853  0.26428531  0.32730944     0.26800
C354        C  0.69212617  0.26059367  0.30065289    -0.20400
C355        C  0.69372413  0.28210179  0.28144155    -0.10000
C356        C  0.68333700  0.30787308  0.28851854    -0.10600
C357        C  0.67003352  0.31131105  0.31462800    -0.03500
C358        C  0.66845648  0.28974390  0.33392483    -0.18600
H359        H  0.64898502  0.18110229  0.44643731     0.10500
H360        H  0.63625917  0.21472389  0.41020478     0.10600
H361        H  0.72087485  0.22299774  0.38680353     0.10200
H362        H  0.73349860  0.18979758  0.42258747     0.11300
H363        H  0.65281390  0.25450414  0.37768127     0.11400
H364        H  0.69816132  0.22655452  0.34374689     0.13300
H365        H  0.70127414  0.24123141  0.29504381     0.09900
H366        H  0.70398249  0.27876924  0.26143197     0.11900
H367        H  0.66185111  0.33097567  0.32064924     0.08600
H368        H  0.65939823  0.29361785  0.35439597     0.11300
C369        C  0.72359345  0.07051009  0.43219900    -0.03300
C370        C  0.70400286  0.05010076  0.42772245    -0.05900
C371        C  0.70881227  0.02919586  0.40814094    -0.21000
C372        C  0.73328393  0.02818909  0.39269869     0.24700
C373        C  0.75230088  0.04940127  0.39629550    -0.18500
C374        C  0.74756602  0.07014719  0.41593709    -0.08500
C375        C  0.73823630  0.00468250  0.37333704    -0.18800
C376        C  0.76323036  0.99734050  0.36418491    -0.23600
C377        C  0.76876892  0.97332333  0.34585677     0.26800
C378        C  0.79301592  0.97292526  0.33009333    -0.20400
C379        C  0.79985774  0.95036383  0.31351450    -0.10000
C380        C  0.78276916  0.92742938  0.31263583    -0.10600
C381        C  0.75849969  0.92769095  0.32846024    -0.03500
C382        C  0.75151560  0.95041508  0.34489217    -0.18600
H383        H  0.68525930  0.04990824  0.43982744     0.10500
H384        H  0.69362683  0.01337551  0.40555170     0.10600
H385        H  0.77088248  0.05028610  0.38406200     0.10200
H386        H  0.76288209  0.08583118  0.41855745     0.11300
H387        H  0.72068339  0.99263602  0.36718721     0.11400
H388        H  0.78083983  0.00926463  0.37029946     0.13300
H389        H  0.80677401  0.99018347  0.33061975     0.09900
H390        H  0.81871930  0.95078148  0.30161056     0.11900
H391        H  0.74493103  0.91029004  0.32820742     0.08600
H392        H  0.73302129  0.94958244  0.35731117     0.11300
C393        C  0.73843034  0.06908824  0.54961895    -0.03300
C394        C  0.76388530  0.05645724  0.54628120    -0.05900
C395        C  0.77188380  0.03560138  0.56456115    -0.21000
C396        C  0.75496884  0.02761914  0.58698491     0.24700
C397        C  0.72960453  0.04047843  0.59058704    -0.18500
C398        C  0.72129716  0.06089530  0.57185126    -0.08500
C399        C  0.76363264  0.00484368  0.60533491    -0.18800
C400        C  0.75806267  0.00397639  0.63316359    -0.23600
C401        C  0.76655106  0.98077431  0.65107484     0.26800
C402        C  0.77463062  0.98548164  0.67911512    -0.20400
C403        C  0.78239421  0.96373205  0.69645688    -0.10000
C404        C  0.78138004  0.93688296  0.68621399    -0.10600
C405        C  0.77295546  0.93216318  0.65826633    -0.03500
C406        C  0.76578972  0.95391367  0.64077367    -0.18600
H407        H  0.77733406  0.06228659  0.52912765     0.10500
H408        H  0.79138502  0.02574971  0.56128462     0.10600
H409        H  0.71591433  0.03427046  0.60737194     0.10200
H410        H  0.70155506  0.07034816  0.57478248     0.11300
H411        H  0.77609022  0.98894533  0.59588570     0.11400
H412        H  0.74815514  0.02121558  0.64329949     0.13300
H413        H  0.77512349  0.00602329  0.68750726     0.09900
H414        H  0.78857223  0.96782470  0.71804348     0.11900
H415        H  0.77193463  0.91162232  0.64992760     0.08600
H416        H  0.75903832  0.94964131  0.61942102     0.11300
C417        C  0.11313792  0.79698907  0.43653163    -0.03300
C418        C  0.12061858  0.82048051  0.42143442    -0.05900
C419        C  0.13663966  0.81855903  0.39717487    -0.21000
C420        C  0.14595526  0.79319702  0.38755220     0.24700
C421        C  0.13844650  0.76951950  0.40249446    -0.18500
C422        C  0.12207343  0.77142859  0.42677148    -0.08500
C423        C  0.16318209  0.79275194  0.36174465    -0.18800
C424        C  0.18147706  0.77315059  0.35571708    -0.23600
C425        C  0.20134762  0.77636386  0.33221898     0.26800
C426        C  0.22780252  0.76604031  0.33545733    -0.20400
C427        C  0.24804677  0.77214963  0.31557899    -0.10000
C428        C  0.24208176  0.78849675  0.29193701    -0.10600
C429        C  0.21512942  0.79715779  0.28767840    -0.03500
C430        C  0.19493238  0.79106389  0.30753697    -0.18600
H431        H  0.11388932  0.84046392  0.42822279     0.10500
H432        H  0.14201009  0.83708502  0.38600231     0.10600
H433        H  0.14477482  0.74956471  0.39530521     0.10200
H434        H  0.11642126  0.75296732  0.43787762     0.11300
H435        H  0.16261564  0.81089308  0.34858978     0.11400
H436        H  0.18421980  0.75619040  0.37018168     0.13300
H437        H  0.23315230  0.75437019  0.35410285     0.09900
H438        H  0.26857541  0.76491408  0.31928016     0.11900
H439        H  0.20978702  0.80937665  0.26942309     0.08600
H440        H  0.17446166  0.79841192  0.30381388     0.11300
C441        C  0.12572184  0.79573023  0.55857742    -0.03300
C442        C  0.14713913  0.81467546  0.55877828    -0.05900
C443        C  0.16754519  0.81306178  0.57919390    -0.21000
C444        C  0.16651042  0.79297663  0.60023071     0.24700
C445        C  0.14541110  0.77360822  0.59977444    -0.18500
C446        C  0.12526288  0.77484659  0.57889254    -0.08500
C447        C  0.18776146  0.79293172  0.62231073    -0.18800
C448        C  0.18244740  0.78699859  0.64954495    -0.23600
C449        C  0.20330599  0.79057074  0.67182256     0.26800
C450        C  0.19552339  0.80021780  0.69859708    -0.20400
C451        C  0.21521821  0.80601025  0.71912434    -0.10000
C452        C  0.24294602  0.80166823  0.71331212    -0.10600
C453        C  0.25053887  0.79076801  0.68695703    -0.03500
C454        C  0.23094468  0.78532342  0.66639897    -0.18600
H455        H  0.14801771  0.83086414  0.54321655     0.10500
H456        H  0.18376692  0.82803552  0.57906542     0.10600
H457        H  0.14452229  0.75755507  0.61546796     0.10200
H458        H  0.10892060  0.76001911  0.57912952     0.11300
H459        H  0.20768256  0.80081603  0.61650580     0.11400
H460        H  0.16176324  0.78211119  0.65598572     0.13300
H461        H  0.17428092  0.80418477  0.70326374     0.09900
H462        H  0.20880950  0.81422550  0.73933856     0.11900
H463        H  0.27174635  0.78707906  0.68190577     0.08600
H464        H  0.23747542  0.77718370  0.64620002     0.11300
C465        C  0.01222604  0.81614418  0.56930470    -0.03300
C466        C  0.01288607  0.84056182  0.58479092    -0.05900
C467        C  0.99353097  0.84569988  0.60575993    -0.21000
C468        C  0.97282415  0.82678645  0.61142401     0.24700
C469        C  0.97268972  0.80185183  0.59663967    -0.18500
C470        C  0.99226381  0.79659464  0.57577169    -0.08500
C471        C  0.95173741  0.83411368  0.63264751    -0.18800
C472        C  0.92623181  0.82400976  0.63222269    -0.23600
C473        C  0.90415794  0.83333121  0.65154522     0.26800
C474        C  0.87705187  0.82775172  0.64409462    -0.20400
C475        C  0.85555714  0.83632540  0.66133293    -0.10000
C476        C  0.86070743  0.85075877  0.68643141    -0.10600
C477        C  0.88778369  0.85620096  0.69409179    -0.03500
C478        C  0.90931642  0.84739595  0.67699463    -0.18600
H479        H  0.02820652  0.85589452  0.58047118     0.10500
H480        H  0.99430278  0.86489371  0.61707352     0.10600
H481        H  0.95758926  0.78637810  0.60108562     0.10200
H482        H  0.99140620  0.77751443  0.56427800     0.11300
H483        H  0.95690953  0.85019265  0.64742843     0.11400
H484        H  0.92060140  0.80966076  0.61575175     0.13300
H485        H  0.87245341  0.81685852  0.62473150     0.09900
H486        H  0.83487941  0.83177867  0.65491364     0.11900
H487        H  0.89235800  0.86692285  0.71355487     0.08600
H488        H  0.92983071  0.85137911  0.68413861     0.11300
C489        C  0.00189505  0.81699115  0.45006053    -0.03300
C490        C  0.99649008  0.84337490  0.44003160    -0.05900
C491        C  0.97586029  0.84779659  0.42036513    -0.21000
C492        C  0.95998077  0.82605165  0.41053558     0.24700
C493        C  0.96523037  0.79958431  0.42061318    -0.18500
C494        C  0.98604351  0.79511885  0.44024724    -0.08500
C495        C  0.93921354  0.83178934  0.38871853    -0.18800
C496        C  0.91734472  0.81596957  0.38392146    -0.23600
C497        C  0.89714891  0.82296015  0.36187186     0.26800
C498        C  0.86970257  0.81599050  0.36582675    -0.20400
C499        C  0.85015746  0.82358712  0.34581334    -0.10000
C500        C  0.85788756  0.83809235  0.32145053    -0.10600
C501        C  0.88549873  0.84419725  0.31708622    -0.03500
C502        C  0.90494965  0.83657587  0.33697497    -0.18600
H503        H  0.00843338  0.86063118  0.44711145     0.10500
H504        H  0.97232897  0.86832074  0.41273911     0.10600
H505        H  0.95386258  0.78223027  0.41289396     0.10200
H506        H  0.98990276  0.77454717  0.44751392     0.11300
H507        H  0.94147585  0.85067856  0.37695673     0.11400
H508        H  0.91320795  0.79856600  0.39743562     0.13300
H509        H  0.86331562  0.80521710  0.38471409     0.09900
H510        H  0.82900902  0.81845545  0.34958723     0.11900
H511        H  0.89212751  0.85493113  0.29826952     0.08600
H512        H  0.92609631  0.84128814  0.33271394     0.11300
C513        C  0.20428466  0.24611081  0.30119168    -0.03300
C514        C  0.19433936  0.22000968  0.29464868    -0.05900
C515        C  0.20012681  0.19782946  0.31236377    -0.21000
C516        C  0.21601931  0.20129627  0.33683353     0.24700
C517        C  0.22529742  0.22760526  0.34368291    -0.18500
C518        C  0.21965657  0.24963988  0.32598588    -0.08500
C519        C  0.22166177  0.17745144  0.35541326    -0.18800
C520        C  0.24329879  0.17636892  0.37298740    -0.23600
C521        C  0.24878503  0.15394790  0.39345676     0.26800
C522        C  0.27426762  0.15324092  0.40696507    -0.20400
C523        C  0.27986706  0.13385850  0.42785503    -0.10000
C524        C  0.26001545  0.11474875  0.43583332    -0.10600
C525        C  0.23465608  0.11509696  0.42204238    -0.03500
C526        C  0.22903154  0.13449650  0.40115580    -0.18600
H527        H  0.18232609  0.21669567  0.27575064     0.10500
H528        H  0.19238214  0.17786170  0.30681256     0.10600
H529        H  0.23653937  0.23146985  0.36293820     0.10200
H530        H  0.22722462  0.26957673  0.33189669     0.11300
H531        H  0.20789934  0.16024636  0.35386983     0.11400
H532        H  0.25815098  0.19273656  0.37233902     0.13300
H533        H  0.28983029  0.16803416  0.40162789     0.09900
H534        H  0.29958298  0.13416654  0.43810697     0.11900
H535        H  0.21888946  0.10067816  0.42778625     0.08600
H536        H  0.20893715  0.13452612  0.39186586     0.11300
C537        C  0.20813447  0.25214993  0.69138581    -0.03300
C538        C  0.20419936  0.22561161  0.70171704    -0.05900
C539        C  0.21005009  0.20311219  0.68453344    -0.21000
C540        C  0.21901705  0.20693358  0.65660833     0.24700
C541        C  0.22239823  0.23352308  0.64618913    -0.18500
C542        C  0.21719473  0.25589864  0.66349650    -0.08500
C543        C  0.22631217  0.18318516  0.63896466    -0.18800
C544        C  0.22127787  0.18275494  0.61104669    -0.23600
C545        C  0.23065231  0.16048036  0.59250608     0.26800
C546        C  0.21404361  0.15208768  0.57006330    -0.20400
C547        C  0.22292476  0.13184934  0.55147953    -0.10000
C548        C  0.24895091  0.12037723  0.55451564    -0.10600
C549        C  0.26582838  0.12911407  0.57667168    -0.03500
C550        C  0.25662599  0.14884081  0.59575731    -0.18600
H551        H  0.19744647  0.22230476  0.72327712     0.10500
H552        H  0.20757434  0.18274187  0.69299015     0.10600
H553        H  0.22989241  0.23704283  0.62493669     0.10200
H554        H  0.22039733  0.27619716  0.65510790     0.11300
H555        H  0.23570217  0.16567939  0.64911726     0.11400
H556        H  0.20937598  0.19901024  0.60150532     0.13300
H557        H  0.19410950  0.16109725  0.56704450     0.09900
H558        H  0.20965469  0.12551146  0.53439856     0.11900
H559        H  0.28596723  0.12048561  0.57937666     0.08600
H560        H  0.27004512  0.15549323  0.61256930     0.11300
C561        C  0.28552026  0.01165458  0.56584991    -0.03300
C562        C  0.26347241  0.99678823  0.57680312    -0.05900
C563        C  0.26688162  0.97995087  0.60030447    -0.21000
C564        C  0.29241624  0.97731534  0.61330534     0.24700
C565        C  0.31463058  0.99208946  0.60234195    -0.18500
C566        C  0.31117792  0.00910179  0.57879969    -0.08500
C567        C  0.29445646  0.95961281  0.63868470    -0.18800
C568        C  0.31775693  0.94847205  0.64827741    -0.23600
C569        C  0.31781750  0.92893729  0.67227436     0.26800
C570        C  0.33646645  0.90726549  0.67229791    -0.20400
C571        C  0.33487448  0.88686799  0.69294696    -0.10000
C572        C  0.31481968  0.88805914  0.71416885    -0.10600
C573        C  0.29733805  0.91070749  0.71517458    -0.03500
C574        C  0.29884183  0.93095925  0.69450051    -0.18600
H575        H  0.24343333  0.99834845  0.56738164     0.10500
H576        H  0.24941815  0.96889412  0.60837354     0.10600
H577        H  0.33449019  0.99107913  0.61216499     0.10200
H578        H  0.32851760  0.02044745  0.57091230     0.11300
H579        H  0.27538799  0.95403796  0.64882836     0.11400
H580        H  0.33666746  0.95157547  0.63681592     0.13300
H581        H  0.35152850  0.90549995  0.65562462     0.09900
H582        H  0.34883032  0.86980858  0.69183288     0.11900
H583        H  0.28191167  0.91241756  0.73148407     0.08600
H584        H  0.28485338  0.94796915  0.69574886     0.11300
C585        C  0.30957043  0.87870261  0.29641883    -0.03300
C586        C  0.29521648  0.90291064  0.29107231    -0.05900
C587        C  0.29404732  0.92342862  0.31138572    -0.21000
C588        C  0.30730997  0.92036185  0.33742876     0.24700
C589        C  0.32246920  0.89651138  0.34255674    -0.18500
C590        C  0.32363042  0.87586540  0.32213159    -0.08500
C591        C  0.30253156  0.94135630  0.35936206    -0.18800
C592        C  0.31827243  0.94509585  0.38230067    -0.23600
C593        C  0.31073111  0.96522811  0.40428885     0.26800
C594        C  0.33105206  0.97984786  0.41858718    -0.20400
C595        C  0.32397037  0.99962604  0.43866480    -0.10000
C596        C  0.29644611  0.00462512  0.44505458    -0.10600
C597        C  0.27623622  0.98927420  0.43139024    -0.03500
C598        C  0.28327697  0.96978560  0.41127744    -0.18600
H599        H  0.28420549  0.90574236  0.27144011     0.10500
H600        H  0.28215745  0.94154164  0.30697618     0.10600
H601        H  0.33244313  0.89316397  0.36265431     0.10200
H602        H  0.33467580  0.85731727  0.32687270     0.11300
H603        H  0.28507617  0.95464978  0.35625558     0.11400
H604        H  0.33730536  0.93407947  0.38460752     0.13300
H605        H  0.35234568  0.97637016  0.41376508     0.09900
H606        H  0.33996178  0.01101753  0.44910132     0.11900
H607        H  0.25486416  0.99247885  0.43603293     0.08600
H608        H  0.26716301  0.95816037  0.40134540     0.11300
C609        C  0.76960466  0.57268110  0.05864001    -0.03300
C610        C  0.79140675  0.55711428  0.06904254    -0.05900
C611        C  0.78678188  0.53638321  0.08875872    -0.21000
C612        C  0.76034038  0.53083985  0.09853094     0.24700
C613        C  0.73850243  0.54641024  0.08801030    -0.18500
C614        C  0.74314648  0.56720353  0.06843148    -0.08500
C615        C  0.75619604  0.50777694  0.11842229    -0.18800
C616        C  0.73400047  0.50513817  0.13498531    -0.23600
C617        C  0.72917059  0.48136989  0.15376744     0.26800
C618        C  0.71068253  0.48409020  0.17627153    -0.20400
C619        C  0.70481945  0.46196312  0.19386455    -0.10000
C620        C  0.71716206  0.43654786  0.18910481    -0.10600
C621        C  0.73554750  0.43373764  0.16649738    -0.03500
C622        C  0.74144579  0.45585886  0.14894374    -0.18600
H623        H  0.81201855  0.56083656  0.06182299     0.10500
H624        H  0.80391940  0.52454052  0.09631497     0.10600
H625        H  0.71769929  0.54223008  0.09414568     0.10200
H626        H  0.72589013  0.57863906  0.06051921     0.11300
H627        H  0.77246618  0.49288246  0.11987704     0.11400
H628        H  0.71897092  0.52133409  0.13557713     0.13300
H629        H  0.70071795  0.50341891  0.18024927     0.09900
H630        H  0.69044692  0.46470741  0.21103621     0.11900
H631        H  0.74522629  0.41433858  0.16218240     0.08600
H632        H  0.75507914  0.45259388  0.13128069     0.11300
C633        C  0.80200534  0.68508678  0.05792258    -0.03300
C634        C  0.78709661  0.70939679  0.06006633    -0.05900
C635        C  0.79372087  0.72873240  0.08060489    -0.21000
C636        C  0.81473736  0.72372677  0.09997240     0.24700
C637        C  0.82983183  0.69947069  0.09781574    -0.18500
C638        C  0.82371056  0.68042470  0.07666914    -0.08500
C639        C  0.82028134  0.74426325  0.12213048    -0.18800
C640        C  0.82542789  0.73746560  0.14917324    -0.23600
C641        C  0.82581868  0.75836127  0.17179671     0.26800
C642        C  0.81265718  0.75302862  0.19756871    -0.20400
C643        C  0.80972631  0.77364128  0.21782164    -0.10000
C644        C  0.82047892  0.79976375  0.21285282    -0.10600
C645        C  0.83518443  0.80450793  0.18778663    -0.03500
C646        C  0.83770688  0.78405308  0.16737776    -0.18600
H647        H  0.77043960  0.71353984  0.04567809     0.10500
H648        H  0.78196303  0.74738419  0.08182668     0.10600
H649        H  0.84643510  0.69538456  0.11227361     0.10200
H650        H  0.83551248  0.66181557  0.07534473     0.11300
H651        H  0.81671130  0.76551301  0.11679482     0.11400
H652        H  0.82584187  0.71611092  0.15525545     0.13300
H653        H  0.80350487  0.73328751  0.20145150     0.09900
H654        H  0.79846689  0.76933700  0.23703150     0.11900
H655        H  0.84385990  0.82436426  0.18343159     0.08600
H656        H  0.84849081  0.78847862  0.14790539     0.11300
C657        C  0.79126167  0.68522716  0.93700847    -0.03300
C658        C  0.76867483  0.70043056  0.92790125    -0.05900
C659        C  0.77088497  0.71805863  0.90489790    -0.21000
C660        C  0.79572775  0.72112428  0.89059924     0.24700
C661        C  0.81851413  0.70616613  0.89984511    -0.18500
C662        C  0.81627243  0.68839017  0.92289978    -0.08500
C663        C  0.79646459  0.73927848  0.86555378    -0.18800
C664        C  0.81926893  0.75075199  0.85517546    -0.23600
C665        C  0.81828050  0.77032930  0.83133448     0.26800
C666        C  0.83639687  0.79241314  0.83095874    -0.20400
C667        C  0.83398438  0.81271157  0.81035024    -0.10000
C668        C  0.81366886  0.81097038  0.78949518    -0.10600
C669        C  0.79665617  0.78797220  0.78885736    -0.03500
C670        C  0.79893058  0.76783390  0.80956180    -0.18600
H671        H  0.74909468  0.69841327  0.93827611     0.10500
H672        H  0.75302158  0.72927252  0.89814946     0.10600
H673        H  0.83784693  0.70750928  0.88894184     0.10200
H674        H  0.83396330  0.67676874  0.92934221     0.11300
H675        H  0.77696610  0.74473445  0.85628960     0.11400
H676        H  0.83860534  0.74780455  0.86584546     0.13300
H677        H  0.85169706  0.79453638  0.84731506     0.09900
H678        H  0.84756923  0.83008235  0.81116159     0.11900
H679        H  0.78100043  0.78592443  0.77286582     0.08600
H680        H  0.78529375  0.75051836  0.80869355     0.11300
C681        C  0.76030572  0.57528442  0.93909912    -0.03300
C682        C  0.73358201  0.57477489  0.92849243    -0.05900
C683        C  0.72602253  0.55570391  0.90799155    -0.21000
C684        C  0.74483421  0.53645614  0.89800110     0.24700
C685        C  0.77178538  0.53733872  0.90810409    -0.18500
C686        C  0.77942157  0.55658615  0.92844730    -0.08500
C687        C  0.73564425  0.51598089  0.87693101    -0.18800
C688        C  0.74644403  0.49078840  0.87523870    -0.23600
C689        C  0.73713425  0.46924112  0.85525088     0.26800
C690        C  0.75333862  0.44584947  0.85225397    -0.20400
C691        C  0.74563524  0.42484476  0.83400787    -0.10000
C692        C  0.72149187  0.42672641  0.81820281    -0.10600
C693        C  0.70503537  0.44993354  0.82131238    -0.03500
C694        C  0.71264727  0.47092658  0.83975621    -0.18600
H695        H  0.71846244  0.58910914  0.93606294     0.10500
H696        H  0.70524244  0.55564473  0.90029628     0.10600
H697        H  0.78709095  0.52343153  0.90015456     0.10200
H698        H  0.80024774  0.55669593  0.93597967     0.11300
H699        H  0.71875098  0.52173418  0.86347878     0.11400
H700        H  0.76294597  0.48538632  0.88945063     0.13300
H701        H  0.77218853  0.44385538  0.86397885     0.09900
H702        H  0.75881562  0.40724454  0.83202599     0.11900
H703        H  0.68619512  0.45181541  0.80957140     0.08600
H704        H  0.69905525  0.48810924  0.84184216     0.11300
C705        C  0.62196151  0.89593847  0.05827740    -0.03300
C706        C  0.63488086  0.87084810  0.06321083    -0.05900
C707        C  0.65426118  0.86833791  0.08449738    -0.21000
C708        C  0.66137628  0.89085777  0.10110830     0.24700
C709        C  0.64918733  0.91627956  0.09562016    -0.18500
C710        C  0.62962798  0.91878230  0.07429259    -0.08500
C711        C  0.67992622  0.88633104  0.12521970    -0.18800
C712        C  0.69474933  0.90606048  0.13743626    -0.23600
C713        C  0.71273810  0.90001976  0.16163846     0.26800
C714        C  0.73786645  0.91333785  0.16381443    -0.20400
C715        C  0.75589708  0.90658174  0.18553281    -0.10000
C716        C  0.74881491  0.88670094  0.20566154    -0.10600
C717        C  0.72314772  0.87422102  0.20413587    -0.03500
C718        C  0.70524678  0.88082752  0.18232881    -0.18600
H719        H  0.62947891  0.85287830  0.05114349     0.10500
H720        H  0.66336283  0.84856593  0.08836578     0.10600
H721        H  0.65379896  0.93395264  0.10843222     0.10200
H722        H  0.61991315  0.93833424  0.07095497     0.11300
H723        H  0.68209318  0.86549179  0.13270045     0.11400
H724        H  0.69515506  0.92644348  0.12852310     0.13300
H725        H  0.74386638  0.92836783  0.14821197     0.09900
H726        H  0.77551009  0.91665132  0.18633633     0.11900
H727        H  0.71706538  0.85900790  0.21950158     0.08600
H728        H  0.68558410  0.87085685  0.18163534     0.11300
C729        C  0.50789992  0.88385652  0.06833180    -0.03300
C730        C  0.50517403  0.85702213  0.07833266    -0.05900
C731        C  0.48655698  0.85079621  0.09968100    -0.21000
C732        C  0.46988844  0.87109940  0.11131877     0.24700
C733        C  0.47293790  0.89815942  0.10185135    -0.18500
C734        C  0.49185261  0.90447398  0.08055820    -0.08500
C735        C  0.44976105  0.86299532  0.13325332    -0.18800
C736        C  0.42604183  0.87613329  0.13758743    -0.23600
C737        C  0.40467620  0.86590115  0.15726688     0.26800
C738        C  0.37742743  0.87302828  0.15224547    -0.20400
C739        C  0.35661505  0.86313339  0.16966210    -0.10000
C740        C  0.36263026  0.84600153  0.19265886    -0.10600
C741        C  0.38995490  0.83931509  0.19810130    -0.03500
C742        C  0.41078350  0.84924096  0.18069344    -0.18600
H743        H  0.51735524  0.84068160  0.06952493     0.10500
H744        H  0.48478355  0.82985950  0.10673936     0.10600
H745        H  0.46093338  0.91446258  0.11093182     0.10200
H746        H  0.49365957  0.92536855  0.07341968     0.11300
H747        H  0.45360239  0.84399496  0.14430682     0.11400
H748        H  0.42103590  0.89365885  0.12456524     0.13300
H749        H  0.37216469  0.88595030  0.13448250     0.09900
H750        H  0.33577169  0.86874374  0.16496065     0.11900
H751        H  0.39526955  0.82642888  0.21586476     0.08600
H752        H  0.43159018  0.84401034  0.18586705     0.11300
C753        C  0.49568302  0.89796921  0.95064928    -0.03300
C754        C  0.48271693  0.92185099  0.94123738    -0.05900
C755        C  0.46076310  0.92022623  0.92234313    -0.21000
C756        C  0.45174441  0.89477885  0.91249767     0.24700
C757        C  0.46412556  0.87098886  0.92286629    -0.18500
C758        C  0.48590558  0.87258523  0.94150181    -0.08500
C759        C  0.42917229  0.89297513  0.89179783    -0.18800
C760        C  0.42849656  0.87277707  0.87252048    -0.23600
C761        C  0.40554645  0.86693066  0.85312390     0.26800
C762        C  0.40965895  0.84711464  0.83215574    -0.20400
C763        C  0.38836138  0.83893973  0.81468915    -0.10000
C764        C  0.36233171  0.85036611  0.81781346    -0.10600
C765        C  0.35813526  0.87048725  0.83853119    -0.03500
C766        C  0.37954173  0.87869975  0.85611733    -0.18600
H767        H  0.48968877  0.94167782  0.94822244     0.10500
H768        H  0.45118041  0.93880021  0.91498684     0.10600
H769        H  0.45689461  0.85099015  0.91677907     0.10200
H770        H  0.49507399  0.85377297  0.94877650     0.11300
H771        H  0.41347796  0.90850863  0.89235330     0.11400
H772        H  0.44593299  0.85920969  0.87098267     0.13300
H773        H  0.42940187  0.83756354  0.82951398     0.09900
H774        H  0.39226650  0.82340384  0.79891068     0.11900
H775        H  0.33824620  0.87964039  0.84137354     0.08600
H776        H  0.37534041  0.89365144  0.87233884     0.11300
C777        C  0.73714117  0.89393761  0.78921546    -0.03300
C778        C  0.71085185  0.88389816  0.78398110    -0.05900
C779        C  0.68994543  0.88803860  0.80354256    -0.21000
C780        C  0.69470500  0.90236293  0.82877295     0.24700
C781        C  0.72086461  0.91313385  0.83371804    -0.18500
C782        C  0.74184136  0.90900358  0.81405299    -0.08500
C783        C  0.67249706  0.90317728  0.85016669    -0.18800
C784        C  0.67216442  0.91921362  0.87333107    -0.23600
C785        C  0.65093055  0.91626124  0.89558163     0.26800
C786        C  0.64331689  0.93880828  0.91213433    -0.20400
C787        C  0.62381387  0.93602317  0.93367859    -0.10000
C788        C  0.61196777  0.91049342  0.93928006    -0.10600
C789        C  0.61985781  0.88796777  0.92286143    -0.03500
C790        C  0.63911943  0.89076371  0.90139245    -0.18600
H791        H  0.70654402  0.87222695  0.76505064     0.10500
H792        H  0.67006812  0.87939951  0.79922570     0.10600
H793        H  0.72560453  0.92381532  0.85310393     0.10200
H794        H  0.76194245  0.91689643  0.81871548     0.11300
H795        H  0.65549444  0.88942561  0.84665887     0.11400
H796        H  0.68745143  0.93493387  0.87613596     0.13300
H797        H  0.65242031  0.95858221  0.90833099     0.09900
H798        H  0.61832180  0.95368972  0.94618373     0.11900
H799        H  0.61135262  0.86795445  0.92679546     0.08600
H800        H  0.64520825  0.87268605  0.88989163     0.11300
C801        C  0.29086488  0.75412231  0.18809062    -0.03300
C802        C  0.29539646  0.72706150  0.19651178    -0.05900
C803        C  0.28833657  0.70554570  0.17852899    -0.21000
C804        C  0.27744164  0.71085787  0.15166154     0.32700
C805        C  0.27347096  0.73793624  0.14304408    -0.18500
C806        C  0.27996327  0.75935271  0.16117307    -0.08500
C807        C  0.26905359  0.68802911  0.13332426    -0.18800
C808        C  0.27281425  0.68867317  0.10520201    -0.23600
C809        C  0.26380970  0.66618285  0.08685061     0.26800
C810        C  0.28141221  0.65631495  0.06589787    -0.20400
C811        C  0.27329332  0.63488119  0.04842240    -0.10000
C812        C  0.24708790  0.62368335  0.05105238    -0.10600
C813        C  0.22915968  0.63412536  0.07151145    -0.03500
C814        C  0.23758718  0.65503658  0.08955086    -0.18600
H815        H  0.30355176  0.72254846  0.21727865     0.10500
H816        H  0.29136241  0.68475290  0.18555980     0.10600
H817        H  0.26456888  0.74254138  0.12263600     0.10200
H818        H  0.27619034  0.78004899  0.15422624     0.11300
H819        H  0.26045610  0.66995145  0.14318839     0.11400
H820        H  0.28402546  0.70538688  0.09559164     0.13300
H821        H  0.30160299  0.66490294  0.06340343     0.09900
H822        H  0.28734414  0.62731698  0.03256707     0.11900
H823        H  0.20882287  0.62584903  0.07380737     0.08600
H824        H  0.22353896  0.66279504  0.10530468     0.11300
C825        C  0.21313867  0.51290111  0.06514813    -0.03300
C826        C  0.23574384  0.50025232  0.07775347    -0.05900
C827        C  0.23226814  0.48215069  0.10024448    -0.21000
C828        C  0.20613895  0.47595795  0.11040918     0.24700
C829        C  0.18347783  0.48901253  0.09821346    -0.18500
C830        C  0.18698235  0.50734845  0.07579815    -0.08500
C831        C  0.20360848  0.45608189  0.13393799    -0.18800
C832        C  0.18116479  0.44096551  0.13877028    -0.23600
C833        C  0.18023440  0.41950157  0.16092395     0.26800
C834        C  0.16334046  0.39671692  0.15702364    -0.20400
C835        C  0.16356931  0.37521468  0.17650461    -0.10000
C836        C  0.18053958  0.37628532  0.20040270    -0.10600
C837        C  0.19641220  0.39970765  0.20498780    -0.03500
C838        C  0.19619915  0.42111699  0.18555766    -0.18600
H839        H  0.25618538  0.50430075  0.07020371     0.10500
H840        H  0.25007473  0.47260239  0.10945716     0.10600
H841        H  0.16309525  0.48537233  0.10606326     0.10200
H842        H  0.16920977  0.51698620  0.06664674     0.11300
H843        H  0.22181707  0.45229386  0.14634850     0.11400
H844        H  0.16381615  0.44265654  0.12466262     0.13300
H845        H  0.15060094  0.39515351  0.13838821     0.09900
H846        H  0.15102419  0.35748435  0.17247345     0.11900
H847        H  0.20946182  0.40131596  0.22337912     0.08600
H848        H  0.20866424  0.43881548  0.18987712     0.11300
C849        C  0.19105190  0.38290104  0.79175186    -0.03300
C850        C  0.20902857  0.40493180  0.78843234    -0.05900
C851        C  0.21059154  0.42519523  0.80904290    -0.21000
C852        C  0.19411209  0.42400939  0.83326271     0.24700
C853        C  0.17521449  0.40259908  0.83602225    -0.18500
C854        C  0.17367033  0.38226834  0.81536994    -0.08500
C855        C  0.19923578  0.44388265  0.85621779    -0.18800
C856        C  0.18155570  0.44937209  0.87720353    -0.23600
C857        C  0.18882081  0.46794930  0.90065618     0.26800
C858        C  0.16874178  0.48458902  0.91275403    -0.20400
C859        C  0.17554294  0.50308660  0.93411373    -0.10000
C860        C  0.20250266  0.50491455  0.94394878    -0.10600
C861        C  0.22231428  0.48737757  0.93265050    -0.03500
C862        C  0.21554630  0.46904209  0.91125482    -0.18600
H863        H  0.22266391  0.40600218  0.77042935     0.10500
H864        H  0.22533691  0.44144033  0.80646059     0.10600
H865        H  0.16256118  0.40063863  0.85465550     0.10200
H866        H  0.15971155  0.36544674  0.81852551     0.11300
H867        H  0.21860542  0.45460077  0.85571212     0.11400
H868        H  0.16106225  0.44111239  0.87671883     0.13300
H869        H  0.14795341  0.48378235  0.90513567     0.09900
H870        H  0.15981980  0.51627865  0.94254759     0.11900
H871        H  0.24317894  0.48809001  0.94003467     0.08600
H872        H  0.23126205  0.45571730  0.90305271     0.11300
C873        C  0.23752005  0.61470198  0.93413143    -0.03300
C874        C  0.21646923  0.62406227  0.91652210    -0.05900
C875        C  0.22198373  0.64303919  0.89510614    -0.21000
C876        C  0.24838520  0.65351453  0.89166918     0.24700
C877        C  0.26945957  0.64377834  0.90899575    -0.18500
C878        C  0.26410884  0.62440505  0.92985432    -0.08500
C879        C  0.25374456  0.67488378  0.87028149    -0.18800
C880        C  0.26973995  0.69634778  0.87628134    -0.23600
C881        C  0.27492196  0.71865959  0.85600541     0.26800
C882        C  0.27583750  0.74550250  0.86607484    -0.20400
C883        C  0.28122376  0.76705096  0.84762182    -0.10000
C884        C  0.28674010  0.76201350  0.81894050    -0.10600
C885        C  0.28645347  0.73506529  0.80891058    -0.03500
C886        C  0.28023244  0.71352653  0.82725615    -0.18600
H887        H  0.19584937  0.61667219  0.91928895     0.10500
H888        H  0.20551507  0.65015539  0.88177916     0.10600
H889        H  0.29010540  0.65114687  0.90638316     0.10200
H890        H  0.28070310  0.61748848  0.94312935     0.11300
H891        H  0.24304180  0.67397768  0.85018608     0.11400
H892        H  0.27789776  0.69859668  0.89753516     0.13300
H893        H  0.27205385  0.74981322  0.88822446     0.09900
H894        H  0.28150678  0.78765480  0.85585910     0.11900
H895        H  0.29063044  0.73074079  0.78684749     0.08600
H896        H  0.28013831  0.69288001  0.81915353     0.11300
C897        C  0.38770778  0.28141795  0.05914014    -0.03300
C898        C  0.38924852  0.25930907  0.07795416    -0.05900
C899        C  0.37090387  0.25723526  0.10055730    -0.21000
C900        C  0.35034753  0.27679111  0.10418528     0.24700
C901        C  0.34869699  0.29874375  0.08515441    -0.18500
C902        C  0.36726882  0.30107748  0.06294979    -0.08500
C903        C  0.33149637  0.27475884  0.12856727    -0.18800
C904        C  0.30536414  0.28265683  0.12660369    -0.23600
C905        C  0.28628205  0.28292909  0.15084337     0.26800
C906        C  0.25837493  0.28014679  0.14543483    -0.20400
C907        C  0.23942616  0.28297846  0.16723880    -0.10000
C908        C  0.24799427  0.28933288  0.19481477    -0.10600
C909        C  0.27597867  0.29170312  0.20042384    -0.03500
C910        C  0.29502822  0.28834059  0.17863690    -0.18600
H911        H  0.40502892  0.24404692  0.07560576     0.10500
H912        H  0.37267644  0.24031363  0.11516111     0.10600
H913        H  0.33351382  0.31454073  0.08783761     0.10200
H914        H  0.36571609  0.31837946  0.04880446     0.11300
H915        H  0.33906127  0.26597099  0.14813549     0.11400
H916        H  0.29734265  0.28876143  0.10613132     0.13300
H917        H  0.25118270  0.27625041  0.12414232     0.09900
H918        H  0.21796254  0.28135623  0.16222810     0.11900
H919        H  0.28307192  0.29677131  0.22147401     0.08600
H920        H  0.31640686  0.29122643  0.18333176     0.11300
C921        C  0.49984030  0.30575140  0.05778509    -0.03300
C922        C  0.51449745  0.28401378  0.06965924    -0.05900
C923        C  0.53434452  0.28887404  0.09017517    -0.21000
C924        C  0.53980959  0.31548181  0.09942632     0.24700
C925        C  0.52510333  0.33728701  0.08758827    -0.18500
C926        C  0.50525898  0.33242466  0.06702753    -0.08500
C927        C  0.56220359  0.31972980  0.11995384    -0.18800
C928        C  0.56465392  0.34204877  0.13632554    -0.23600
C929        C  0.58841947  0.34648984  0.15509492     0.26800
C930        C  0.58559619  0.36303075  0.17915966    -0.20400
C931        C  0.60794387  0.36809878  0.19674715    -0.10000
C932        C  0.63356696  0.35690718  0.19033281    -0.10600
C933        C  0.63638886  0.34055308  0.16612554    -0.03500
C934        C  0.61413827  0.33549976  0.14862772    -0.18600
H935        H  0.51079062  0.26323875  0.06294726     0.10500
H936        H  0.54557823  0.27176987  0.09876916     0.10600
H937        H  0.52931130  0.35815902  0.09349446     0.10200
H938        H  0.49439995  0.34960598  0.05811151     0.11300
H939        H  0.57699222  0.30339377  0.12198597     0.11400
H940        H  0.54858264  0.35723279  0.13663029     0.13300
H941        H  0.56605043  0.37197348  0.18438437     0.09900
H942        H  0.60520919  0.38088541  0.21521772     0.11900
H943        H  0.65593107  0.33187387  0.16045022     0.08600
H944        H  0.61738780  0.32352043  0.12970007     0.11300
C945        C  0.64553560  0.33565784  0.81318830    -0.03300
C946        C  0.65200583  0.31945649  0.83674257    -0.05900
C947        C  0.63132235  0.30931691  0.85422705    -0.21000
C948        C  0.60388001  0.31519861  0.84848951     0.24700
C949        C  0.59743772  0.33025005  0.82405350    -0.18500
C950        C  0.61804579  0.34056301  0.80679873    -0.08500
C951        C  0.58260118  0.30599697  0.86872364    -0.18800
C952        C  0.55857281  0.31898916  0.87152821    -0.23600
C953        C  0.53811222  0.31258153  0.89365941     0.26800
C954        C  0.51916715  0.33283306  0.90085591    -0.20400
C955        C  0.50001054  0.32836255  0.92214545    -0.10000
C956        C  0.49914327  0.30335058  0.93652440    -0.10600
C957        C  0.51758661  0.28271668  0.92887516    -0.03500
C958        C  0.53692482  0.28725494  0.90761017    -0.18600
H959        H  0.67302838  0.31508639  0.84196934     0.10500
H960        H  0.63680819  0.29745047  0.87269485     0.10600
H961        H  0.57654708  0.33416707  0.81807808     0.10200
H962        H  0.61240120  0.35242871  0.78838675     0.11300
H963        H  0.58795279  0.28977462  0.88328828     0.11400
H964        H  0.55447071  0.33679554  0.85861267     0.13300
H965        H  0.51944746  0.35241202  0.89025359     0.09900
H966        H  0.48586544  0.34455142  0.92734461     0.11900
H967        H  0.51717797  0.26313168  0.93943487     0.08600
H968        H  0.55062703  0.27083905  0.90208329     0.11300
C969        C  0.38778615  0.27895736  0.93716988    -0.03300
C970        C  0.39206981  0.25907079  0.91626138    -0.05900
C971        C  0.37415965  0.25690752  0.89333600    -0.21000
C972        C  0.35132659  0.27401722  0.89147167     0.24700
C973        C  0.34681903  0.29352472  0.91278186    -0.18500
C974        C  0.36497595  0.29605698  0.93529661    -0.08500
C975        C  0.33345302  0.27261890  0.86627907    -0.18800
C976        C  0.30667223  0.27812669  0.86782447    -0.23600
C977        C  0.28871946  0.28036425  0.84277317     0.26800
C978        C  0.26067532  0.27632998  0.84639182    -0.20400
C979        C  0.24262663  0.28136398  0.82421474    -0.10000
C980        C  0.25223619  0.29105772  0.79806119    -0.10600
C981        C  0.28039555  0.29447683  0.79414445    -0.03500
C982        C  0.29852296  0.28909760  0.81627852    -0.18600
H983        H  0.40976014  0.24590572  0.91712434     0.10500
H984        H  0.37818608  0.24197477  0.87696791     0.10600
H985        H  0.32983343  0.30754130  0.91156932     0.10200
H986        H  0.36135667  0.31162756  0.95112098     0.11300
H987        H  0.34252944  0.26678522  0.84620308     0.11400
H988        H  0.29735605  0.28122031  0.88845277     0.13300
H989        H  0.25264016  0.26985031  0.86667199     0.09900
H990        H  0.22101994  0.27869696  0.82794854     0.11900
H991        H  0.28834076  0.30206131  0.77425592     0.08600
H992        H  0.31997262  0.29306603  0.81297992     0.11300
loop_ 
_geom_bond_atom_site_label_1 
_geom_bond_atom_site_label_2 
_geom_bond_distance 
_geom_bond_site_symmetry_2 
_ccdc_geom_bond_type 
O1            V9   1.894       .  S
O1           C11   1.264       .  A
O2            V9   1.891   1_554  S
O2           C12   1.263       .  A
O3            V9   1.896   1_554  S
O3           C13   1.264       .  A
O4            V9   1.892       .  S
O4           C14   1.263       .  A
O5           V10   1.903       .  S
O5           C14   1.265       .  A
O6           V10   1.898   1_554  S
O6           C13   1.265       .  A
O7           V10   1.903   1_554  S
O7           C12   1.265       .  A
O8           V10   1.900       .  S
O8           C11   1.265       .  A
V9           V10   2.087       .  T
C11         C956   1.476       .  S
C12         C897   1.473       .  S
C13         C921   1.477       .  S
C14         C969   1.471       .  S
O15          V23   1.893   1_554  S
O15          C25   1.263       .  A
O16          V23   1.895       .  S
O16          C26   1.264       .  A
O17          V23   1.891       .  S
O17          C27   1.263       .  A
O18          V23   1.894   1_554  S
O18          C28   1.264       .  A
O19          V24   1.904       .  S
O19          C28   1.266       .  A
O20          V24   1.906   1_556  S
O20          C27   1.266       .  A
O21          V24   1.896   1_556  S
O21          C26   1.264       .  A
O22          V24   1.899       .  S
O22          C25   1.264       .  A
V23          V24   2.087   1_556  T
C25         C812   1.470       .  S
C26         C860   1.475       .  S
C27         C873   1.474       .  S
C28         C825   1.479       .  S
O29          V37   1.890       .  S
O29          C39   1.263       .  A
O30          V37   1.889   1_556  S
O30          C40   1.263       .  A
O31          V37   1.883       .  S
O31          C41   1.261       .  A
O32          V37   1.882   1_556  S
O32          C42   1.262       .  A
O33          V38   1.907   1_556  S
O33          C42   1.266       .  A
O34          V38   1.904       .  S
O34          C41   1.266       .  A
O35          V38   1.910   1_556  S
O35          C40   1.267       .  A
O36          V38   1.911       .  S
O36          C39   1.267       .  A
V37          V38   2.086       .  T
C39         C729   1.481       .  S
C40         C788   1.480       .  S
C41         C705   1.472       .  S
C42         C753   1.475       .  S
O43          V51   1.895       .  S
O43          C53   1.264       .  A
O44          V51   1.890   1_556  S
O44          C54   1.263       .  A
O45          V51   1.898   1_556  S
O45          C55   1.264       .  A
O46          V51   1.897       .  S
O46          C56   1.264       .  A
O47          V52   1.902   1_554  S
O47          C56   1.264       .  A
O48          V52   1.901       .  S
O48          C55   1.265       .  A
O49          V52   1.904       .  S
O49          C54   1.266       .  A
O50          V52   1.900   1_554  S
O50          C53   1.265       .  A
V51          V52   2.087   1_554  T
C53         C609   1.477       .  S
C54         C657   1.477       .  S
C55         C681   1.479       .  S
C56         C633   1.474       .  S
O57          V65   1.902       .  S
O57          C67   1.265       .  A
O58          V65   1.903       .  S
O58          C68   1.265       .  A
O59          V65   1.905       .  S
O59          C69   1.266       .  A
O60          V65   1.902       .  S
O60          C70   1.265       .  A
O61          V66   1.897       .  S
O61          C70   1.265       .  A
O62          V66   1.896       .  S
O62          C69   1.264       .  A
O63          V66   1.888       .  S
O63          C68   1.263       .  A
O64          V66   1.890       .  S
O64          C67   1.262       .  A
V65          V66   2.086       .  T
C67         C548   1.469       .  S
C68         C596   1.475       .  S
C69         C524   1.481       .  S
C70         C561   1.480       .  S
O71          V79   1.904       .  S
O71          C81   1.266       .  A
O72          V79   1.908       .  S
O72          C82   1.266       .  A
O73          V79   1.903       .  S
O73          C83   1.265       .  A
O74          V79   1.901       .  S
O74          C84   1.265       .  A
O75          V80   1.889       .  S
O75          C84   1.263       .  A
O76          V80   1.890       .  S
O76          C83   1.263       .  A
O77          V80   1.890       .  S
O77          C82   1.263       .  A
O78          V80   1.893       .  S
O78          C81   1.264       .  A
V79          V80   2.085       .  T
C81         C465   1.477       .  S
C82         C417   1.479       .  S
C83         C441   1.472       .  S
C84         C489   1.474       .  S
O85          V93   1.900       .  S
O85          C95   1.264       .  A
O86          V93   1.901       .  S
O86          C96   1.265       .  A
O87          V93   1.908       .  S
O87          C97   1.267       .  A
O88          V93   1.904       .  S
O88          C98   1.266       .  A
O89          V94   1.896       .  S
O89          C98   1.265       .  A
O90          V94   1.894       .  S
O90          C97   1.264       .  A
O91          V94   1.893       .  S
O91          C96   1.264       .  A
O92          V94   1.895       .  S
O92          C95   1.263       .  A
V93          V94   2.086       .  T
C95         C393   1.472       .  S
C96         C345   1.475       .  S
C97         C369   1.481       .  S
C98         C332   1.480       .  S
O99         V107   1.905       .  S
O99         C109   1.266       .  A
O100        V107   1.909       .  S
O100        C110   1.267       .  A
O101        V107   1.904       .  S
O101        C111   1.265       .  A
O102        V107   1.904       .  S
O102        C112   1.266       .  A
O103        V108   1.889       .  S
O103        C112   1.263       .  A
O104        V108   1.888       .  S
O104        C111   1.263       .  A
O105        V108   1.888       .  S
O105        C110   1.263       .  A
O106        V108   1.888       .  S
O106        C109   1.263       .  A
V107        V108   2.086       .  T
C109        C249   1.477   1_655  S
C110        C297   1.479       .  S
C111        C225   1.474       .  S
C112        C273   1.476       .  S
O113        V121   1.893       .  S
O113        C123   1.264       .  A
O114        V121   1.891       .  S
O114        C124   1.263       .  A
O115        V121   1.910       .  S
O115        C125   1.267       .  A
O116        V121   1.907       .  S
O116        C126   1.267       .  A
O117        V122   1.891       .  S
O117        C126   1.263       .  A
O118        V122   1.891       .  S
O118        C125   1.263       .  A
O119        V122   1.903       .  S
O119        C124   1.265       .  A
O120        V122   1.901       .  S
O120        C123   1.265       .  A
V121        V122   2.086       .  T
C123        C260   1.477       .  S
C124        C908   1.475       .  S
C125        C513   1.481       .  S
C126        C836   1.479       .  S
O127        V135   1.895       .  S
O127        C137   1.264       .  A
O128        V135   1.896       .  S
O128        C138   1.264       .  A
O129        V135   1.894       .  S
O129        C139   1.263       .  A
O130        V135   1.891       .  S
O130        C140   1.264       .  A
O131        V136   1.901       .  S
O131        C140   1.265       .  A
O132        V136   1.900       .  S
O132        C139   1.265       .  A
O133        V136   1.899       .  S
O133        C138   1.265       .  A
O134        V136   1.900       .  S
O134        C137   1.265       .  A
V135        V136   2.087       .  T
C137        C356   1.477       .  S
C138        C620   1.477       .  S
C139        C284   1.476       .  S
C140        C932   1.476       .  S
O141        V149   1.905       .  S
O141        C151   1.266       .  A
O142        V149   1.906       .  S
O142        C152   1.267       .  A
O143        V149   1.895       .  S
O143        C153   1.263       .  A
O144        V149   1.891       .  S
O144        C154   1.263       .  A
O145        V150   1.904       .  S
O145        C154   1.266       .  A
O146        V150   1.901       .  S
O146        C153   1.266       .  A
O147        V150   1.893       .  S
O147        C152   1.263       .  A
O148        V150   1.893       .  S
O148        C151   1.264       .  A
V149        V150   2.086       .  T
C151        C321   1.480       .  S
C152        C692   1.479       .  S
C153        C308   1.478       .  S
C154        C945   1.477       .  S
O155        V163   1.903       .  S
O155        C165   1.265       .  A
O156        V163   1.903       .  S
O156        C166   1.266       .  A
O157        V163   1.899       .  S
O157        C167   1.264       .  A
O158        V163   1.896       .  S
O158        C168   1.265       .  A
O159        V164   1.891       .  S
O159        C168   1.263       .  A
O160        V164   1.890       .  S
O160        C167   1.263       .  A
O161        V164   1.898       .  S
O161        C166   1.265       .  A
O162        V164   1.898       .  S
O162        C165   1.265       .  A
V163        V164   2.086       .  T
C165        C380   1.481       .  S
C166        C644   1.480       .  S
C167        C500   1.473       .  S
C168        C716   1.472       .  S
O169        V177   1.896       .  S
O169        C179   1.264       .  A
O170        V177   1.897       .  S
O170        C180   1.265       .  A
O171        V177   1.894       .  S
O171        C181   1.263       .  A
O172        V177   1.896       .  S
O172        C182   1.264       .  A
O173        V178   1.898       .  S
O173        C182   1.264       .  A
O174        V178   1.901       .  S
O174        C181   1.265       .  A
O175        V178   1.902       .  S
O175        C180   1.265       .  A
O176        V178   1.902       .  S
O176        C179   1.266       .  A
V177        V178   2.086       .  T
C179        C476   1.478       .  S
C180        C777   1.480       .  S
C181        C404   1.473       .  S
C182        C668   1.476       .  S
O183        V191   1.887       .  S
O183        C193   1.262       .  A
O184        V191   1.886       .  S
O184        C194   1.262       .  A
O185        V191   1.900       .  S
O185        C195   1.266       .  A
O186        V191   1.898       .  S
O186        C196   1.265       .  A
O187        V192   1.902       .  S
O187        C196   1.266       .  A
O188        V192   1.899       .  S
O188        C195   1.264       .  A
O189        V192   1.904       .  S
O189        C194   1.266       .  A
O190        V192   1.905       .  S
O190        C193   1.266       .  A
V191        V192   2.087       .  T
C193        C585   1.475       .  S
C194        C801   1.471       .  S
C195        C428   1.480       .  S
C196        C740   1.481       .  S
O197        V205   1.905       .  S
O197        C207   1.266       .  A
O198        V205   1.902       .  S
O198        C208   1.265       .  A
O199        V205   1.895       .  S
O199        C209   1.264       .  A
O200        V205   1.895       .  S
O200        C210   1.263       .  A
O201        V206   1.904       .  S
O201        C210   1.265       .  A
O202        V206   1.903       .  S
O202        C209   1.266       .  A
O203        V206   1.890       .  S
O203        C208   1.263       .  A
O204        V206   1.889       .  S
O204        C207   1.263       .  A
V205        V206   2.085       .  T
C207        C452   1.475       .  S
C208        C764   1.475       .  S
C209        C572   1.479       .  S
C210        C884   1.473       .  S
O211        V219   1.903       .  S
O211        C221   1.265       .  A
O212        V219   1.900       .  S
O212        C222   1.265       .  A
O213        V219   1.894       .  S
O213        C223   1.264       .  A
O214        V219   1.892       .  S
O214        C224   1.263       .  A
O215        V220   1.903       .  S
O215        C224   1.266       .  A
O216        V220   1.900       .  S
O216        C223   1.265       .  A
O217        V220   1.891       .  S
O217        C222   1.263       .  A
O218        V220   1.889       .  S
O218        C221   1.262       .  A
V219        V220   2.087       .  T
C221        C537   1.469       .  S
C222        C849   1.475       .  S
C223        C236   1.476       .  S
C224        C980   1.477       .  S
C225        C226   1.403       .  A
C225        C230   1.405   1_655  A
C226        C227   1.392   1_655  A
C226        H239   1.083       .  S
C227        C228   1.401       .  A
C227        H240   1.084       .  S
C228        C229   1.408       .  A
C228        C231   1.480       .  S
C229        C230   1.401       .  A
C229        H241   1.082       .  S
C230        H242   1.083       .  S
C231        C232   1.346       .  D
C231        H243   1.085       .  S
C232        C233   1.484       .  S
C232        H244   1.085       .  S
C233        C234   1.404       .  A
C233        C238   1.407       .  A
C234        C235   1.399       .  A
C234        H245   1.083       .  S
C235        C236   1.405       .  A
C235        H246   1.083       .  S
C236        C237   1.403       .  A
C237        C238   1.394       .  A
C237        H247   1.083       .  S
C238        H248   1.082       .  S
C249        C250   1.406       .  A
C249        C254   1.404       .  A
C250        C251   1.401       .  A
C250        H263   1.083       .  S
C251        C252   1.404       .  A
C251        H264   1.083       .  S
C252        C253   1.405       .  A
C252        C255   1.482       .  S
C253        C254   1.392       .  A
C253        H265   1.082       .  S
C254        H266   1.083       .  S
C255        C256   1.346       .  D
C255        H267   1.085       .  S
C256        C257   1.482       .  S
C256        H268   1.086       .  S
C257        C258   1.402       .  A
C257        C262   1.408       .  A
C258        C259   1.394       .  A
C258        H269   1.084       .  S
C259        C260   1.404       .  A
C259        H270   1.083       .  S
C260        C261   1.405       .  A
C261        C262   1.399       .  A
C261        H271   1.083       .  S
C262        H272   1.081       .  S
C273        C274   1.405       .  A
C273        C278   1.404       .  A
C274        C275   1.399       .  A
C274        H287   1.083       .  S
C275        C276   1.404       .  A
C275        H288   1.083       .  S
C276        C277   1.406       .  A
C276        C279   1.483       .  S
C277        C278   1.393       .  A
C277        H289   1.082       .  S
C278        H290   1.083       .  S
C279        C280   1.346       .  D
C279        H291   1.085       .  S
C280        C281   1.483       .  S
C280        H292   1.086       .  S
C281        C282   1.403       .  A
C281        C286   1.408       .  A
C282        C283   1.396       .  A
C282        H293   1.083       .  S
C283        C284   1.405       .  A
C283        H294   1.083       .  S
C284        C285   1.404       .  A
C285        C286   1.397       .  A
C285        H295   1.083       .  S
C286        H296   1.081       .  S
C297        C298   1.405       .  A
C297        C302   1.406       .  A
C298        C299   1.392       .  A
C298        H311   1.083       .  S
C299        C300   1.400       .  A
C299        H312   1.084       .  S
C300        C301   1.408       .  A
C300        C303   1.481       .  S
C301        C302   1.403       .  A
C301        H313   1.082       .  S
C302        H314   1.083       .  S
C303        C304   1.344       .  D
C303        H315   1.087       .  S
C304        C305   1.482       .  S
C304        H316   1.086       .  S
C305        C306   1.401       .  A
C305        C310   1.407       .  A
C306        C307   1.399       .  A
C306        H317   1.083       .  S
C307        C308   1.407       .  A
C307        H318   1.083       .  S
C308        C309   1.403       .  A
C309        C310   1.395       .  A
C309        H319   1.083       .  S
C310        H320   1.083       .  S
C321        C322   1.406       .  A
C321        C326   1.405       .  A
C322        C323   1.401       .  A
C322        H335   1.083       .  S
C323        C324   1.404       .  A
C323        H336   1.083       .  S
C324        C325   1.406       .  A
C324        C327   1.486       .  S
C325        C326   1.395       .  A
C325        H337   1.082       .  S
C326        H338   1.083       .  S
C327        C328   1.347       .  D
C327        H339   1.085       .  S
C328        C329   1.485       .  S
C328        H340   1.086       .  S
C329        C330   1.403       .  A
C329        C334   1.408       .  A
C330        C331   1.395       .  A
C330        H341   1.084       .  S
C331        C332   1.404       .  A
C331        H342   1.083       .  S
C332        C333   1.406       .  A
C333        C334   1.401       .  A
C333        H343   1.083       .  S
C334        H344   1.081       .  S
C345        C346   1.406       .  A
C345        C350   1.403       .  A
C346        C347   1.401       .  A
C346        H359   1.083       .  S
C347        C348   1.403       .  A
C347        H360   1.083       .  S
C348        C349   1.406       .  A
C348        C351   1.481       .  S
C349        C350   1.392       .  A
C349        H361   1.083       .  S
C350        H362   1.083       .  S
C351        C352   1.345       .  D
C351        H363   1.085       .  S
C352        C353   1.483       .  S
C352        H364   1.087       .  S
C353        C354   1.403       .  A
C353        C358   1.408       .  A
C354        C355   1.394       .  A
C354        H365   1.084       .  S
C355        C356   1.404       .  A
C355        H366   1.083       .  S
C356        C357   1.405       .  A
C357        C358   1.399       .  A
C357        H367   1.083       .  S
C358        H368   1.081       .  S
C369        C370   1.405       .  A
C369        C374   1.405       .  A
C370        C371   1.401       .  A
C370        H383   1.083       .  S
C371        C372   1.406       .  A
C371        H384   1.083       .  S
C372        C373   1.409       .  A
C372        C375   1.492       .  S
C373        C374   1.397       .  A
C373        H385   1.080       .  S
C374        H386   1.083       .  S
C375        C376   1.349   1_545  D
C375        H387   1.085   1_545  S
C376        C377   1.487       .  S
C376        H388   1.083   1_565  S
C377        C378   1.404       .  A
C377        C382   1.408       .  A
C378        C379   1.397       .  A
C378        H389   1.083       .  S
C379        C380   1.404       .  A
C379        H390   1.083       .  S
C380        C381   1.406       .  A
C381        C382   1.401       .  A
C381        H391   1.083       .  S
C382        H392   1.081       .  S
C393        C394   1.404       .  A
C393        C398   1.404       .  A
C394        C395   1.396       .  A
C394        H407   1.083       .  S
C395        C396   1.401       .  A
C395        H408   1.083       .  S
C396        C397   1.406       .  A
C396        C399   1.477       .  S
C397        C398   1.398       .  A
C397        H409   1.083       .  S
C398        H410   1.083       .  S
C399        C400   1.343       .  D
C399        H411   1.087   1_545  S
C400        C401   1.479   1_545  S
C400        H412   1.087       .  S
C401        C402   1.402       .  A
C401        C406   1.405       .  A
C402        C403   1.399       .  A
C402        H413   1.083   1_565  S
C403        C404   1.404       .  A
C403        H414   1.083       .  S
C404        C405   1.403       .  A
C405        C406   1.395       .  A
C405        H415   1.083       .  S
C406        H416   1.083       .  S
C417        C418   1.404       .  A
C417        C422   1.406       .  A
C418        C419   1.393       .  A
C418        H431   1.083       .  S
C419        C420   1.401       .  A
C419        H432   1.084       .  S
C420        C421   1.408       .  A
C420        C423   1.483       .  S
C421        C422   1.403       .  A
C421        H433   1.082       .  S
C422        H434   1.083       .  S
C423        C424   1.346       .  D
C423        H435   1.086       .  S
C424        C425   1.485       .  S
C424        H436   1.085       .  S
C425        C426   1.403       .  A
C425        C430   1.407       .  A
C426        C427   1.399       .  A
C426        H437   1.083       .  S
C427        C428   1.406       .  A
C427        H438   1.083       .  S
C428        C429   1.404       .  A
C429        C430   1.397       .  A
C429        H439   1.083       .  S
C430        H440   1.082       .  S
C441        C442   1.403       .  A
C441        C446   1.404       .  A
C442        C443   1.394       .  A
C442        H455   1.083       .  S
C443        C444   1.401       .  A
C443        H456   1.084       .  S
C444        C445   1.406       .  A
C444        C447   1.476       .  S
C445        C446   1.399       .  A
C445        H457   1.083       .  S
C446        H458   1.083       .  S
C447        C448   1.345       .  D
C447        H459   1.087       .  S
C448        C449   1.480       .  S
C448        H460   1.087       .  S
C449        C450   1.403       .  A
C449        C454   1.404       .  A
C450        C451   1.399       .  A
C450        H461   1.083       .  S
C451        C452   1.405       .  A
C451        H462   1.083       .  S
C452        C453   1.405       .  A
C453        C454   1.394       .  A
C453        H463   1.083       .  S
C454        H464   1.083       .  S
C465        C466   1.404       .  A
C465        C470   1.405   1_455  A
C466        C467   1.395   1_455  A
C466        H479   1.083       .  S
C467        C468   1.402       .  A
C467        H480   1.083       .  S
C468        C469   1.409       .  A
C468        C471   1.485       .  S
C469        C470   1.400       .  A
C469        H481   1.082       .  S
C470        H482   1.083       .  S
C471        C472   1.347       .  D
C471        H483   1.084       .  S
C472        C473   1.488       .  S
C472        H484   1.085       .  S
C473        C474   1.404       .  A
C473        C478   1.409       .  A
C474        C475   1.397       .  A
C474        H485   1.083       .  S
C475        C476   1.404       .  A
C475        H486   1.083       .  S
C476        C477   1.404       .  A
C477        C478   1.398       .  A
C477        H487   1.083       .  S
C478        H488   1.080       .  S
C489        C490   1.404   1_455  A
C489        C494   1.405   1_455  A
C490        C491   1.392       .  A
C490        H503   1.083   1_655  S
C491        C492   1.401       .  A
C491        H504   1.084       .  S
C492        C493   1.407       .  A
C492        C495   1.478       .  S
C493        C494   1.398       .  A
C493        H505   1.082       .  S
C494        H506   1.083       .  S
C495        C496   1.344       .  D
C495        H507   1.086       .  S
C496        C497   1.479       .  S
C496        H508   1.085       .  S
C497        C498   1.402       .  A
C497        C502   1.406       .  A
C498        C499   1.399       .  A
C498        H509   1.083       .  S
C499        C500   1.405       .  A
C499        H510   1.083       .  S
C500        C501   1.403       .  A
C501        C502   1.392       .  A
C501        H511   1.083       .  S
C502        H512   1.082       .  S
C513        C514   1.405       .  A
C513        C518   1.405       .  A
C514        C515   1.402       .  A
C514        H527   1.083       .  S
C515        C516   1.406       .  A
C515        H528   1.083       .  S
C516        C517   1.407       .  A
C516        C519   1.489       .  S
C517        C518   1.395       .  A
C517        H529   1.081       .  S
C518        H530   1.083       .  S
C519        C520   1.350       .  D
C519        H531   1.084       .  S
C520        C521   1.490       .  S
C520        H532   1.085       .  S
C521        C522   1.405       .  A
C521        C526   1.408       .  A
C522        C523   1.398       .  A
C522        H533   1.083       .  S
C523        C524   1.404       .  A
C523        H534   1.083       .  S
C524        C525   1.406       .  A
C525        C526   1.399       .  A
C525        H535   1.083       .  S
C526        H536   1.080       .  S
C537        C538   1.404       .  A
C537        C542   1.402       .  A
C538        C539   1.400       .  A
C538        H551   1.083       .  S
C539        C540   1.403       .  A
C539        H552   1.083       .  S
C540        C541   1.404       .  A
C540        C543   1.476       .  S
C541        C542   1.392       .  A
C541        H553   1.083       .  S
C542        H554   1.083       .  S
C543        C544   1.342       .  D
C543        H555   1.087       .  S
C544        C545   1.474       .  S
C544        H556   1.087       .  S
C545        C546   1.400       .  A
C545        C550   1.406       .  A
C546        C547   1.395       .  A
C546        H557   1.083       .  S
C547        C548   1.404       .  A
C547        H558   1.083       .  S
C548        C549   1.403       .  A
C549        C550   1.397       .  A
C549        H559   1.083       .  S
C550        H560   1.083       .  S
C561        C562   1.404   1_545  A
C561        C566   1.407       .  A
C562        C563   1.394       .  A
C562        H575   1.083       .  S
C563        C564   1.403       .  A
C563        H576   1.084       .  S
C564        C565   1.408       .  A
C564        C567   1.484       .  S
C565        C566   1.401   1_565  A
C565        H577   1.081       .  S
C566        H578   1.083       .  S
C567        C568   1.347       .  D
C567        H579   1.086       .  S
C568        C569   1.485       .  S
C568        H580   1.085       .  S
C569        C570   1.403       .  A
C569        C574   1.406       .  A
C570        C571   1.400       .  A
C570        H581   1.083       .  S
C571        C572   1.406       .  A
C571        H582   1.083       .  S
C572        C573   1.405       .  A
C573        C574   1.395       .  A
C573        H583   1.083       .  S
C574        H584   1.082       .  S
C585        C586   1.404       .  A
C585        C590   1.405       .  A
C586        C587   1.392       .  A
C586        H599   1.083       .  S
C587        C588   1.401       .  A
C587        H600   1.084       .  S
C588        C589   1.408       .  A
C588        C591   1.480       .  S
C589        C590   1.400       .  A
C589        H601   1.081       .  S
C590        H602   1.083       .  S
C591        C592   1.344       .  D
C591        H603   1.087       .  S
C592        C593   1.480       .  S
C592        H604   1.085       .  S
C593        C594   1.403       .  A
C593        C598   1.405       .  A
C594        C595   1.400       .  A
C594        H605   1.083       .  S
C595        C596   1.406   1_565  A
C595        H606   1.083   1_565  S
C596        C597   1.404   1_545  A
C597        C598   1.391       .  A
C597        H607   1.083       .  S
C598        H608   1.083       .  S
C609        C610   1.404       .  A
C609        C614   1.404       .  A
C610        C611   1.398       .  A
C610        H623   1.083       .  S
C611        C612   1.404       .  A
C611        H624   1.083       .  S
C612        C613   1.408       .  A
C612        C615   1.485       .  S
C613        C614   1.396       .  A
C613        H625   1.081       .  S
C614        H626   1.083       .  S
C615        C616   1.347       .  D
C615        H627   1.085       .  S
C616        C617   1.484       .  S
C616        H628   1.085       .  S
C617        C618   1.403       .  A
C617        C622   1.408       .  A
C618        C619   1.397       .  A
C618        H629   1.083       .  S
C619        C620   1.404       .  A
C619        H630   1.083       .  S
C620        C621   1.404       .  A
C621        C622   1.396       .  A
C621        H631   1.083       .  S
C622        H632   1.081       .  S
C633        C634   1.403       .  A
C633        C638   1.405       .  A
C634        C635   1.396       .  A
C634        H647   1.083       .  S
C635        C636   1.402       .  A
C635        H648   1.083       .  S
C636        C637   1.406       .  A
C636        C639   1.478       .  S
C637        C638   1.401       .  A
C637        H649   1.083       .  S
C638        H650   1.083       .  S
C639        C640   1.345       .  D
C639        H651   1.087       .  S
C640        C641   1.481       .  S
C640        H652   1.087       .  S
C641        C642   1.402       .  A
C641        C646   1.405       .  A
C642        C643   1.399       .  A
C642        H653   1.083       .  S
C643        C644   1.406       .  A
C643        H654   1.083       .  S
C644        C645   1.406       .  A
C645        C646   1.397       .  A
C645        H655   1.083       .  S
C646        H656   1.083       .  S
C657        C658   1.404       .  A
C657        C662   1.405       .  A
C658        C659   1.393       .  A
C658        H671   1.083       .  S
C659        C660   1.402       .  A
C659        H672   1.084       .  S
C660        C661   1.408       .  A
C660        C663   1.482       .  S
C661        C662   1.400       .  A
C661        H673   1.081       .  S
C662        H674   1.083       .  S
C663        C664   1.345       .  D
C663        H675   1.087       .  S
C664        C665   1.481       .  S
C664        H676   1.085       .  S
C665        C666   1.402       .  A
C665        C670   1.406       .  A
C666        C667   1.398       .  A
C666        H677   1.083       .  S
C667        C668   1.405       .  A
C667        H678   1.083       .  S
C668        C669   1.404       .  A
C669        C670   1.395       .  A
C669        H679   1.083       .  S
C670        H680   1.082       .  S
C681        C682   1.405       .  A
C681        C686   1.405       .  A
C682        C683   1.397       .  A
C682        H695   1.083       .  S
C683        C684   1.402       .  A
C683        H696   1.083       .  S
C684        C685   1.408       .  A
C684        C687   1.485       .  S
C685        C686   1.399       .  A
C685        H697   1.082       .  S
C686        H698   1.083       .  S
C687        C688   1.347       .  D
C687        H699   1.083       .  S
C688        C689   1.490       .  S
C688        H700   1.086       .  S
C689        C690   1.403       .  A
C689        C694   1.411       .  A
C690        C691   1.396       .  A
C690        H701   1.084       .  S
C691        C692   1.405       .  A
C691        H702   1.083       .  S
C692        C693   1.404       .  A
C693        C694   1.400       .  A
C693        H703   1.083       .  S
C694        H704   1.080       .  S
C705        C706   1.404       .  A
C705        C710   1.404       .  A
C706        C707   1.391       .  A
C706        H719   1.083       .  S
C707        C708   1.400       .  A
C707        H720   1.084       .  S
C708        C709   1.408       .  A
C708        C711   1.476       .  S
C709        C710   1.398       .  A
C709        H721   1.082       .  S
C710        H722   1.083       .  S
C711        C712   1.342       .  D
C711        H723   1.087       .  S
C712        C713   1.476       .  S
C712        H724   1.085       .  S
C713        C714   1.400       .  A
C713        C718   1.406       .  A
C714        C715   1.396       .  A
C714        H725   1.083       .  S
C715        C716   1.406       .  A
C715        H726   1.083       .  S
C716        C717   1.403       .  A
C717        C718   1.393       .  A
C717        H727   1.083       .  S
C718        H728   1.083       .  S
C729        C730   1.405       .  A
C729        C734   1.406       .  A
C730        C731   1.394       .  A
C730        H743   1.083       .  S
C731        C732   1.401       .  A
C731        H744   1.084       .  S
C732        C733   1.409       .  A
C732        C735   1.485       .  S
C733        C734   1.403       .  A
C733        H745   1.082       .  S
C734        H746   1.083       .  S
C735        C736   1.346       .  D
C735        H747   1.085       .  S
C736        C737   1.488       .  S
C736        H748   1.086       .  S
C737        C738   1.403       .  A
C737        C742   1.409       .  A
C738        C739   1.398       .  A
C738        H749   1.083       .  S
C739        C740   1.405       .  A
C739        H750   1.083       .  S
C740        C741   1.405       .  A
C741        C742   1.399       .  A
C741        H751   1.083       .  S
C742        H752   1.081       .  S
C753        C754   1.406       .  A
C753        C758   1.403       .  A
C754        C755   1.403       .  A
C754        H767   1.083       .  S
C755        C756   1.404       .  A
C755        H768   1.083       .  S
C756        C757   1.405       .  A
C756        C759   1.481       .  S
C757        C758   1.388       .  A
C757        H769   1.082       .  S
C758        H770   1.083       .  S
C759        C760   1.346       .  D
C759        H771   1.084       .  S
C760        C761   1.481       .  S
C760        H772   1.087       .  S
C761        C762   1.402       .  A
C761        C766   1.408       .  A
C762        C763   1.392       .  A
C762        H773   1.084       .  S
C763        C764   1.403       .  A
C763        H774   1.083       .  S
C764        C765   1.405       .  A
C765        C766   1.400       .  A
C765        H775   1.083       .  S
C766        H776   1.081       .  S
C777        C778   1.404       .  A
C777        C782   1.406       .  A
C778        C779   1.395       .  A
C778        H791   1.083       .  S
C779        C780   1.404       .  A
C779        H792   1.084       .  S
C780        C781   1.408       .  A
C780        C783   1.486       .  S
C781        C782   1.401       .  A
C781        H793   1.081       .  S
C782        H794   1.083       .  S
C783        C784   1.348       .  D
C783        H795   1.086       .  S
C784        C785   1.487       .  S
C784        H796   1.084       .  S
C785        C786   1.405       .  A
C785        C790   1.406       .  A
C786        C787   1.403       .  A
C786        H797   1.083       .  S
C787        C788   1.406       .  A
C787        H798   1.083       .  S
C788        C789   1.404       .  A
C789        C790   1.393       .  A
C789        H799   1.083       .  S
C790        H800   1.082       .  S
C801        C802   1.404       .  A
C801        C806   1.404       .  A
C802        C803   1.399       .  A
C802        H815   1.083       .  S
C803        C804   1.403       .  A
C803        H816   1.083       .  S
C804        C805   1.403       .  A
C804        C807   1.475       .  S
C805        C806   1.393       .  A
C805        H817   1.083       .  S
C806        H818   1.083       .  S
C807        C808   1.342       .  D
C807        H819   1.087       .  S
C808        C809   1.472       .  S
C808        H820   1.087       .  S
C809        C810   1.400       .  A
C809        C814   1.404       .  A
C810        C811   1.395       .  A
C810        H821   1.083       .  S
C811        C812   1.404       .  A
C811        H822   1.083       .  S
C812        C813   1.403       .  A
C813        C814   1.397       .  A
C813        H823   1.083       .  S
C814        H824   1.083       .  S
C825        C826   1.405       .  A
C825        C830   1.405       .  A
C826        C827   1.395       .  A
C826        H839   1.083       .  S
C827        C828   1.403       .  A
C827        H840   1.084       .  S
C828        C829   1.408       .  A
C828        C831   1.484       .  S
C829        C830   1.400       .  A
C829        H841   1.082       .  S
C830        H842   1.083       .  S
C831        C832   1.347       .  D
C831        H843   1.086       .  S
C832        C833   1.486       .  S
C832        H844   1.085       .  S
C833        C834   1.404       .  A
C833        C838   1.406       .  A
C834        C835   1.400       .  A
C834        H845   1.083       .  S
C835        C836   1.405       .  A
C835        H846   1.083       .  S
C836        C837   1.405       .  A
C837        C838   1.395       .  A
C837        H847   1.083       .  S
C838        H848   1.082       .  S
C849        C850   1.404       .  A
C849        C854   1.404       .  A
C850        C851   1.394       .  A
C850        H863   1.083       .  S
C851        C852   1.402       .  A
C851        H864   1.084       .  S
C852        C853   1.408       .  A
C852        C855   1.480       .  S
C853        C854   1.397       .  A
C853        H865   1.081       .  S
C854        H866   1.083       .  S
C855        C856   1.344       .  D
C855        H867   1.087       .  S
C856        C857   1.479       .  S
C856        H868   1.085       .  S
C857        C858   1.401       .  A
C857        C862   1.406       .  A
C858        C859   1.398       .  A
C858        H869   1.083       .  S
C859        C860   1.406       .  A
C859        H870   1.083       .  S
C860        C861   1.404       .  A
C861        C862   1.394       .  A
C861        H871   1.083       .  S
C862        H872   1.083       .  S
C873        C874   1.405       .  A
C873        C878   1.404       .  A
C874        C875   1.401       .  A
C874        H887   1.083       .  S
C875        C876   1.404       .  A
C875        H888   1.083       .  S
C876        C877   1.404       .  A
C876        C879   1.480       .  S
C877        C878   1.394       .  A
C877        H889   1.083       .  S
C878        H890   1.083       .  S
C879        C880   1.344       .  D
C879        H891   1.087       .  S
C880        C881   1.477       .  S
C880        H892   1.087       .  S
C881        C882   1.401       .  A
C881        C886   1.405       .  A
C882        C883   1.396       .  A
C882        H893   1.083       .  S
C883        C884   1.403       .  A
C883        H894   1.083       .  S
C884        C885   1.405       .  A
C885        C886   1.400       .  A
C885        H895   1.083       .  S
C886        H896   1.083       .  S
C897        C898   1.405       .  A
C897        C902   1.403       .  A
C898        C899   1.400       .  A
C898        H911   1.083       .  S
C899        C900   1.403       .  A
C899        H912   1.083       .  S
C900        C901   1.406       .  A
C900        C903   1.480       .  S
C901        C902   1.394       .  A
C901        H913   1.083       .  S
C902        H914   1.083       .  S
C903        C904   1.343       .  D
C903        H915   1.086       .  S
C904        C905   1.479       .  S
C904        H916   1.087       .  S
C905        C906   1.401       .  A
C905        C910   1.407       .  A
C906        C907   1.394       .  A
C906        H917   1.084       .  S
C907        C908   1.405       .  A
C907        H918   1.083       .  S
C908        C909   1.404       .  A
C909        C910   1.400       .  A
C909        H919   1.083       .  S
C910        H920   1.082       .  S
C921        C922   1.404       .  A
C921        C926   1.405       .  A
C922        C923   1.396       .  A
C922        H935   1.083       .  S
C923        C924   1.403       .  A
C923        H936   1.083       .  S
C924        C925   1.407       .  A
C924        C927   1.482       .  S
C925        C926   1.397       .  A
C925        H937   1.081       .  S
C926        H938   1.083       .  S
C927        C928   1.346       .  D
C927        H939   1.086       .  S
C928        C929   1.482       .  S
C928        H940   1.085       .  S
C929        C930   1.404       .  A
C929        C934   1.406       .  A
C930        C931   1.399       .  A
C930        H941   1.083       .  S
C931        C932   1.405       .  A
C931        H942   1.083       .  S
C932        C933   1.404       .  A
C933        C934   1.393       .  A
C933        H943   1.083       .  S
C934        H944   1.082       .  S
C945        C946   1.404       .  A
C945        C950   1.404       .  A
C946        C947   1.400       .  A
C946        H959   1.083       .  S
C947        C948   1.405       .  A
C947        H960   1.083       .  S
C948        C949   1.407       .  A
C948        C951   1.486       .  S
C949        C950   1.394       .  A
C949        H961   1.081       .  S
C950        H962   1.083       .  S
C951        C952   1.347       .  D
C951        H963   1.085       .  S
C952        C953   1.483       .  S
C952        H964   1.085       .  S
C953        C954   1.403       .  A
C953        C958   1.408       .  A
C954        C955   1.394       .  A
C954        H965   1.084       .  S
C955        C956   1.403       .  A
C955        H966   1.083       .  S
C956        C957   1.405       .  A
C957        C958   1.399       .  A
C957        H967   1.083       .  S
C958        H968   1.081       .  S
C969        C970   1.404       .  A
C969        C974   1.402       .  A
C970        C971   1.400       .  A
C970        H983   1.083       .  S
C971        C972   1.403       .  A
C971        H984   1.083       .  S
C972        C973   1.406       .  A
C972        C975   1.481       .  S
C973        C974   1.394       .  A
C973        H985   1.082       .  S
C974        H986   1.083       .  S
C975        C976   1.344       .  D
C975        H987   1.086       .  S
C976        C977   1.481       .  S
C976        H988   1.087       .  S
C977        C978   1.401       .  A
C977        C982   1.407       .  A
C978        C979   1.395       .  A
C978        H989   1.084       .  S
C979        C980   1.405       .  A
C979        H990   1.083       .  S
C980        C981   1.405       .  A
C981        C982   1.399       .  A
C981        H991   1.083       .  S
C982        H992   1.082       .  S
