geometry optimzed in LAMMPS
_audit_creation_date              2020-12-01 
_audit_creation_method            'lammps2cif' 
_symmetry_space_group_name_H-M    'P1' 
_symmetry_Int_Tables_number       1 
_symmetry_cell_setting            triclinic 
loop_ 
_symmetry_equiv_pos_as_xyz 
  x,y,z 
_cell_length_a                    24.60127171 
_cell_length_b                    24.591461975296205 
_cell_length_c                    24.58994857324732 
_cell_angle_alpha                 89.81007516476572 
_cell_angle_beta                  89.65673203888834 
_cell_angle_gamma                 90.011729349531 
loop_ 
_atom_site_label 
_atom_site_type_symbol 
_atom_site_fract_x 
_atom_site_fract_y 
_atom_site_fract_z 
_atom_site_charge 
C1          C  0.71903773  0.03928294  0.03713016     0.85900
C2          C  0.78122692  0.03302312  0.05406493    -0.54300
C3          C  0.81224325  0.00069395  0.01889324     0.08800
C4          C  0.78081012  0.97774333  0.97383017     0.19800
C5          C  0.72464504  0.05818956  0.97575545    -0.55100
C6          C  0.75755562  0.02457980  0.94497148     0.08900
C7          C  0.70095155  0.97816422  0.03120925    -0.54600
C8          C  0.73433867  0.94824888  0.99775793     0.09500
H9          H  0.79947342  0.05340143  0.08840390     0.14000
H10         H  0.80550558  0.95084590  0.94668398    -0.00200
H11         H  0.70412591  0.09268017  0.95770942     0.14300
H12         H  0.66671944  0.95941566  0.05176817     0.14100
C13         C  0.71354269  0.68725636  0.68591582     0.85900
C14         C  0.69644563  0.74977702  0.69020188    -0.54300
C15         C  0.73066837  0.78037920  0.72286100     0.08800
C16         C  0.77616446  0.74996831  0.74640593     0.19800
C17         C  0.77522120  0.69205885  0.66769566    -0.55100
C18         C  0.80557385  0.72579451  0.70035527     0.08900
C19         C  0.71881460  0.67075339  0.74803041    -0.54600
C20         C  0.75217413  0.70471868  0.77735388     0.09500
H21         H  0.66287538  0.76861367  0.66908046     0.14000
H22         H  0.80310884  0.77603436  0.77233523    -0.00200
H23         H  0.79409724  0.67079861  0.63413489     0.14300
H24         H  0.69801251  0.63738174  0.76790360     0.14100
C25         C  0.07295104  0.03583150  0.68503627     0.85900
C26         C  0.08514618  0.97341267  0.67882130    -0.54300
C27         C  0.05113206  0.94120767  0.71052876     0.08800
C28         C  0.00937759  0.97034385  0.74247069     0.19800
C29         C  0.01067343  0.04024864  0.67239804    -0.55100
C30         C  0.97937655  0.00430309  0.70293485     0.08900
C31         C  0.07251779  0.04335311  0.74955942    -0.54600
C32         C  0.03859817  0.00806026  0.77789226     0.09500
H33         H  0.11667980  0.95695675  0.65264945     0.14000
H34         H  0.98228288  0.94260327  0.76652629    -0.00200
H35         H  0.99339793  0.06968314  0.64448676     0.14300
H36         H  0.09476109  0.07387124  0.77174536     0.14100
C37         C  0.21937535  0.19301591  0.69019002     0.85900
C38         C  0.28140723  0.17794887  0.69354691    -0.54300
C39         C  0.31186219  0.21184036  0.72649532     0.08800
C40         C  0.28067509  0.25524539  0.75396248     0.19800
C41         C  0.20330293  0.19507308  0.75287934    -0.55100
C42         C  0.23726500  0.22719164  0.78476486     0.08900
C43         C  0.22160618  0.25545623  0.67580934    -0.54600
C44         C  0.25295714  0.28648582  0.71082624     0.09500
H45         H  0.30014905  0.14427333  0.67233762     0.14000
H46         H  0.30629164  0.28117258  0.78009753    -0.00200
H47         H  0.16953228  0.17327467  0.77103545     0.14300
H48         H  0.19964306  0.27427570  0.64274017     0.14100
O49         O  0.63783708  0.27134817  0.71891829    -0.79100
C50         C  0.48751589  0.25544577  0.59444877     0.82000
O51         O  0.49677052  0.35541731  0.75384205    -0.80200
O52         O  0.39728615  0.17470186  0.71342862    -0.81700
O53         O  0.54036368  0.10265957  0.77614729    -0.81500
O54         O  0.63793756  0.21532602  0.79021462    -0.80100
Zn55       Zn  0.56317002  0.27098265  0.68928816     1.55700
O56         O  0.48537025  0.10081052  0.70430423    -0.81500
Cd57       Cd  0.56275650  0.18172045  0.78305919     1.59700
Cd58       Cd  0.47446701  0.27538250  0.78121755     1.59600
O59         O  0.54819417  0.18309239  0.86071167    -0.81500
O60         O  0.51790021  0.22866460  0.73719019    -1.92000
Cd61       Cd  0.47274817  0.18153617  0.69114632     1.59900
O62         O  0.49573857  0.25643215  0.86415905    -0.81400
O63         O  0.45794814  0.22036961  0.61839174    -0.80100
C64         C  0.52993642  0.37678786  0.71873892     0.82400
C65         C  0.65948539  0.25320956  0.76234975     0.82100
O66         O  0.53322487  0.27010865  0.61403846    -0.79100
C67         C  0.50621157  0.07859499  0.74613115     0.82900
O68         O  0.55999374  0.34784366  0.69015816    -0.79100
C69         C  0.52369905  0.21852345  0.88746766     0.83000
C70         C  0.37083522  0.21259593  0.73414972     0.83400
O71         O  0.39404234  0.25258869  0.75883140    -0.81600
C72         C  0.56201762  0.53151633  0.68826986     0.85900
C73         C  0.56829550  0.53464497  0.75272533    -0.54300
C74         C  0.53353821  0.50119631  0.78237103     0.08800
C75         C  0.49758103  0.46816278  0.74854605     0.19800
C76         C  0.56806562  0.46836518  0.67902763    -0.55100
C77         C  0.53369684  0.43657689  0.71189071     0.08900
C78         C  0.49958317  0.54073879  0.68133839    -0.54600
C79         C  0.46740286  0.50707678  0.71384684     0.09500
H80         H  0.59756908  0.55906915  0.77421225     0.14000
H81         H  0.47072532  0.44234033  0.77389724    -0.00200
H82         H  0.59741734  0.45090327  0.65100344     0.14300
H83         H  0.48275268  0.57137093  0.65441773     0.14100
C84         C  0.55771075  0.18579786  0.04071528     0.85900
C85         C  0.49428917  0.17885511  0.04955489    -0.54300
C86         C  0.46225323  0.21327418  0.01706767     0.08800
C87         C  0.49385056  0.25002752  0.98083012     0.19800
C88         C  0.56223670  0.18089401  0.97649017    -0.55100
C89         C  0.52838234  0.21462543  0.94714338     0.08900
C90         C  0.56548835  0.24876546  0.04836508    -0.54600
C91         C  0.53130428  0.28092934  0.01628365     0.09500
H92         H  0.47686614  0.14930870  0.07748708     0.14000
H93         H  0.46811729  0.27645912  0.95521153    -0.00200
H94         H  0.58969966  0.15497378  0.95426536     0.14300
H95         H  0.59582089  0.26592158  0.07518217     0.14100
O96         O  0.80399213  0.70395754  0.85762946    -0.79100
C97         C  0.91105137  0.73144978  0.01319457     0.82000
O98         O  0.74782262  0.61831694  0.99578752    -0.80200
O99         O  0.79957351  0.78843908  0.10492258    -0.81700
O100        O  0.72603716  0.86810541  0.94669885    -0.81500
O101        O  0.72405003  0.74565271  0.85695545    -0.80100
Zn102      Zn  0.81984496  0.70284448  0.93727012     1.55700
O103        O  0.77352556  0.86784125  0.02352342    -0.81500
Cd104      Cd  0.72458991  0.78672625  0.92876709     1.59700
Cd105      Cd  0.72283810  0.69791989  0.02421373     1.59600
O106        O  0.64564519  0.78571665  0.93559296    -0.81500
O107        O  0.76819600  0.74349141  0.98034656    -1.92000
Cd108      Cd  0.80882893  0.79408411  0.02691209     1.59900
O109        O  0.64154611  0.72207548  0.99970446    -0.81400
O110        O  0.88890384  0.77373540  0.03287701    -0.80100
C111        C  0.78384664  0.59747386  0.96313125     0.82400
C112        C  0.75822889  0.71359124  0.83540666     0.82100
O113        O  0.88960490  0.70491390  0.97471673    -0.79100
C114        C  0.74036267  0.89023969  0.99121741     0.82900
O115        O  0.81666061  0.62663319  0.93788439    -0.79100
C116        C  0.61846409  0.75565978  0.96615090     0.83000
C117        C  0.77339503  0.75443518  0.13196943     0.83400
O118        O  0.74360952  0.71780085  0.10861576    -0.81600
C119        C  0.92323237  0.32401822  0.90031606     0.85900
C120        C  0.95537877  0.35522183  0.85572998    -0.54300
C121        C  0.92831033  0.39348916  0.82499278     0.08800
C122        C  0.86394232  0.38798826  0.83683897     0.19800
C123        C  0.89259405  0.36973251  0.93020886    -0.55100
C124        C  0.85742861  0.40201681  0.90077597     0.08900
C125        C  0.87830603  0.29493101  0.86894324    -0.54600
C126        C  0.84965143  0.32359416  0.83082402     0.09500
H127        H  0.99691714  0.34514663  0.84737066     0.14000
H128        H  0.83893929  0.41447385  0.81030064    -0.00200
H129        H  0.90128402  0.37730394  0.97203771     0.14300
H130        H  0.86687341  0.25427969  0.88014322     0.14100
C131        C  0.96279638  0.43469558  0.78595476     0.85900
C132        C  0.02708200  0.43085857  0.79205882    -0.54300
C133        C  0.05539836  0.46428852  0.75701871     0.08800
C134        C  0.02161468  0.49801797  0.72144777     0.19800
C135        C  0.95368525  0.49805130  0.79265021    -0.55100
C136        C  0.98632511  0.52994525  0.75803734     0.08900
C137        C  0.95436003  0.42565012  0.72382532    -0.54600
C138        C  0.98587878  0.45986329  0.69214226     0.09500
H139        H  0.04903079  0.40680600  0.82150339     0.14000
H140        H  0.04680012  0.52354477  0.69333134    -0.00200
H141        H  0.92573706  0.51540574  0.82211178     0.14300
H142        H  0.92740068  0.39520685  0.70700401     0.14100
C143        C  0.81659451  0.44306987  0.93269402     0.85900
C144        C  0.81801829  0.43789655  0.99716008    -0.54300
C145        C  0.78233982  0.47164876  0.02363184     0.08800
C146        C  0.74913267  0.50581137  0.98803241     0.19800
C147        C  0.75492549  0.43388414  0.92074756    -0.55100
C148        C  0.72166444  0.46804360  0.95048532     0.08900
C149        C  0.82419842  0.50640761  0.92438144    -0.54600
C150        C  0.78780555  0.53789410  0.95502782     0.09500
H151        H  0.84250298  0.41047774  0.02103216     0.14000
H152        H  0.72005495  0.53081908  0.01240822    -0.00200
H153        H  0.73950829  0.40253199  0.89403571     0.14300
H154        H  0.85588047  0.52401857  0.89902770     0.14100
C155        C  0.21827808  0.03859380  0.53360736     0.85900
C156        C  0.20612398  0.97577441  0.53961556    -0.54300
C157        C  0.23799748  0.94230447  0.50592879     0.08800
C158        C  0.27701737  0.97212701  0.47060824     0.19800
C159        C  0.28228390  0.03916384  0.54114146    -0.55100
C160        C  0.31121683  0.00455075  0.50724667     0.08900
C161        C  0.21308655  0.04741893  0.47053591    -0.54600
C162        C  0.24451952  0.01182402  0.43908425     0.09500
H163        H  0.17635003  0.95964320  0.56808015     0.14000
H164        H  0.30174988  0.94487434  0.44468276    -0.00200
H165        H  0.30383180  0.06303283  0.57083353     0.14300
H166        H  0.18765818  0.07877610  0.45280502     0.14100
C167        C  0.18124339  0.15317522  0.64889990     0.85900
C168        C  0.21259583  0.11929692  0.60514313    -0.54300
C169        C  0.18439673  0.08174912  0.57365699     0.08800
C170        C  0.11959955  0.08897587  0.58672094     0.19800
C171        C  0.13678809  0.18280684  0.61483610    -0.55100
C172        C  0.10472693  0.15324327  0.57881419     0.08900
C173        C  0.14873443  0.10920778  0.67972391    -0.54600
C174        C  0.11295013  0.07694263  0.65135691     0.09500
H175        H  0.25522044  0.12650583  0.59916539     0.14000
H176        H  0.09382177  0.06201198  0.56160378    -0.00200
H177        H  0.13013344  0.22517155  0.62204913     0.14300
H178        H  0.15682072  0.10237576  0.72194495     0.14100
C179        C  0.06019459  0.68616977  0.03424220     0.85900
C180        C  0.05527723  0.66814124  0.97285917    -0.54300
C181        C  0.02233050  0.70180143  0.94252965     0.08800
C182        C  0.99775393  0.74752917  0.97227987     0.19800
C183        C  0.07747709  0.74801614  0.02791443    -0.55100
C184        C  0.04283767  0.77870500  0.99538585     0.08900
C185        C  0.99903815  0.69111025  0.05285642    -0.54600
C186        C  0.96867447  0.72370909  0.01908302     0.09500
H187        H  0.07677706  0.63446300  0.95435031     0.14000
H188        H  0.97070412  0.77251614  0.94566877    -0.00200
H189        H  0.11187169  0.76637417  0.04812487     0.14300
H190        H  0.98098023  0.67047032  0.08748462     0.14100
C191        C  0.21701319  0.53912383  0.03549147     0.85900
C192        C  0.20846319  0.47636902  0.04324096    -0.54300
C193        C  0.24234790  0.44423154  0.01065161     0.08800
C194        C  0.28014945  0.47485635  0.97485540     0.19800
C195        C  0.27998287  0.54536048  0.04383400    -0.55100
C196        C  0.31156289  0.51091821  0.01126658     0.08900
C197        C  0.21203417  0.54419218  0.97105834    -0.54600
C198        C  0.24571441  0.51030069  0.94122693     0.09500
H199        H  0.17823663  0.45933007  0.07073163     0.14000
H200        H  0.30599675  0.44818028  0.94944472    -0.00200
H201        H  0.29753051  0.57391389  0.07232237     0.14300
H202        H  0.18359997  0.56962753  0.94939529     0.14100
C203        C  0.20637062  0.68731464  0.18999412     0.85900
C204        C  0.19631905  0.68269045  0.25320996    -0.54300
C205        C  0.23059543  0.71541074  0.28451513     0.08800
C206        C  0.27016593  0.74779851  0.25249551     0.19800
C207        C  0.20473802  0.75191993  0.18113585    -0.55100
C208        C  0.23855612  0.78185349  0.21497513     0.08900
C209        C  0.26865289  0.67606647  0.18424469    -0.54600
C210        C  0.29992848  0.70869782  0.21758936     0.09500
H211        H  0.16552004  0.65642872  0.27103034     0.14000
H212        H  0.29790384  0.77246332  0.27808135    -0.00200
H213        H  0.18153536  0.77287398  0.15033633     0.14300
H214        H  0.28598656  0.64706274  0.15587745     0.14100
C215        C  0.09904297  0.64734344  0.07362401     0.85900
C216        C  0.14439988  0.61660586  0.04304434    -0.54300
C217        C  0.17625824  0.57979064  0.07093305     0.08800
C218        C  0.16211139  0.58590992  0.13602530     0.19800
C219        C  0.06905273  0.60171828  0.10568543    -0.55100
C220        C  0.09768827  0.57025846  0.14280175     0.08900
C221        C  0.12961720  0.67862637  0.11811055    -0.54600
C222        C  0.16668260  0.65118861  0.14978532     0.09500
H223        H  0.15122855  0.62617432  0.00096561     0.14000
H224        H  0.18875954  0.56054009  0.16202378    -0.00200
H225        H  0.02713093  0.59431474  0.09657502     0.14300
H226        H  0.12008709  0.72071974  0.12470038     0.14100
C227        C  0.55821653  0.67995939  0.53599086     0.85900
C228        C  0.56550083  0.66960902  0.47372642    -0.54300
C229        C  0.53094356  0.70074205  0.44219068     0.08800
C230        C  0.49431723  0.73873161  0.47123605     0.19800
C231        C  0.56285689  0.74457379  0.53916304    -0.55100
C232        C  0.52938002  0.77335731  0.50433060     0.08900
C233        C  0.49437909  0.67286830  0.54456752    -0.54600
C234        C  0.46232348  0.70525213  0.50968705     0.09500
H235        H  0.59545482  0.64206334  0.45663160     0.14000
H236        H  0.46896095  0.76359105  0.44324045    -0.00200
H237        H  0.58782745  0.76728368  0.56687147     0.14300
H238        H  0.47688833  0.64650606  0.57548987     0.14100
O239        O  0.29899584  0.71737934  0.61279657    -0.79100
C240        C  0.28303222  0.58931001  0.46495859     0.82000
O241        O  0.38065823  0.74708259  0.47103688    -0.80200
O242        O  0.19980006  0.69698892  0.37233071    -0.81700
O243        O  0.12611840  0.77284932  0.51114344    -0.81500
O244        O  0.23787973  0.78394116  0.61453456    -0.80100
Zn245      Zn  0.29633917  0.68537536  0.53943914     1.55700
O246        O  0.12623826  0.69771414  0.46060590    -0.81500
Cd247      Cd  0.20437406  0.77723678  0.53877747     1.59700
Cd248      Cd  0.29875722  0.77456252  0.44783940     1.59600
O249        O  0.20591095  0.85594956  0.52871335    -0.81500
O250        O  0.25292837  0.73158867  0.49335091    -1.92000
Cd251      Cd  0.20642584  0.68275041  0.44987469     1.59900
O252        O  0.27620312  0.85753329  0.47158376    -0.81400
O253        O  0.24526364  0.61059499  0.43735309    -0.80100
C254        C  0.40216462  0.71333192  0.50572384     0.82400
C255        C  0.27866610  0.75954162  0.63479743     0.82100
O256        O  0.29888751  0.61034821  0.50950909    -0.79100
C257        C  0.10354446  0.74107510  0.47747815     0.82900
O258        O  0.37295040  0.68642467  0.53707121    -0.79100
C259        C  0.24010938  0.88202164  0.50171135     0.83000
C260        C  0.23443587  0.72134994  0.34437423     0.83400
O261        O  0.27279953  0.74984622  0.36669284    -0.81600
O262        O  0.30940224  0.51336978  0.60769969    -0.79100
C263        C  0.28556653  0.63915758  0.75250032     0.82000
O264        O  0.38529602  0.47246346  0.75376534    -0.80200
O265        O  0.21837203  0.53354986  0.85379240    -0.81700
O266        O  0.13675249  0.44904463  0.71002385    -0.81500
O267        O  0.24740502  0.44791392  0.60562793    -0.80100
Zn268      Zn  0.30598021  0.54125341  0.68352806     1.55700
O269        O  0.13485836  0.51401631  0.77308082    -0.81500
Cd270      Cd  0.21535965  0.45082354  0.68205030     1.59700
Cd271      Cd  0.30511289  0.45024530  0.77581460     1.59600
O272        O  0.22371321  0.37256928  0.68664001    -0.81500
O273        O  0.26165908  0.49532875  0.72973817    -1.92000
Cd274      Cd  0.21366916  0.54129271  0.77484080     1.59900
O275        O  0.28725150  0.36910654  0.75019494    -0.81400
O276        O  0.24535705  0.61794498  0.77750311    -0.80100
C277        C  0.40813234  0.50513376  0.71946830     0.82400
C278        C  0.28821355  0.47217564  0.58494224     0.82100
O279        O  0.30729675  0.61669752  0.71124377    -0.79100
C280        C  0.11337899  0.47347826  0.74928250     0.82900
O281        O  0.38115549  0.53532590  0.68942462    -0.79100
C282        C  0.25559121  0.34598362  0.71546395     0.83000
C283        C  0.24950596  0.50457374  0.88131277     0.83400
O284        O  0.28355322  0.47146844  0.85854782    -0.81600
O285        O  0.88651064  0.77704577  0.69782480    -0.79100
C286        C  0.04364513  0.88310049  0.71764323     0.82000
O287        O  0.02249208  0.71430518  0.61286775    -0.80200
O288        O  0.13149177  0.77578405  0.78790050    -0.81700
O289        O  0.97349447  0.69438187  0.86131853    -0.81500
O290        O  0.88456395  0.69715614  0.73998227    -0.80100
Zn291      Zn  0.96653016  0.79145758  0.69462133     1.55700
O292        O  0.04806658  0.74548078  0.86317394    -0.81500
Cd293      Cd  0.95565464  0.69674146  0.78036764     1.59700
Cd294      Cd  0.05377182  0.69397079  0.69433381     1.59600
O295        O  0.95862212  0.61791954  0.77858852    -0.81500
O296        O  0.00843527  0.74004381  0.73742908    -1.92000
Cd297      Cd  0.05258189  0.78242761  0.78885165     1.59900
O298        O  0.02881670  0.61230583  0.72180973    -0.81400
O299        O  0.06007610  0.86152808  0.76186199    -0.80100
C300        C  0.98786094  0.74811108  0.59125107     0.82400
C301        C  0.86361912  0.73143991  0.70788891     0.82100
O302        O  0.00590347  0.86167321  0.69002975    -0.79100
C303        C  0.01699528  0.70981541  0.88437107     0.82900
O304        O  0.96364331  0.78220975  0.61944107    -0.79100
C305        C  0.99187350  0.58993909  0.75278912     0.83000
C306        C  0.16006301  0.75108606  0.75415755     0.83400
O307        O  0.13789146  0.72046068  0.71699142    -0.81600
C308        C  0.31507044  0.79082355  0.78548554     0.85900
C309        C  0.32119156  0.80061780  0.72264043    -0.54300
C310        C  0.28868628  0.76625340  0.69226768     0.08800
C311        C  0.25526901  0.72698513  0.72322250     0.19800
C312        C  0.25004056  0.79313771  0.79338941    -0.55100
C313        C  0.22039521  0.75916896  0.75911473     0.08900
C314        C  0.32571616  0.72838068  0.79219219    -0.54600
C315        C  0.29338034  0.69705718  0.75862558     0.09500
H316        H  0.34731193  0.83138749  0.70461323     0.14000
H317        H  0.23084696  0.69940917  0.69671570    -0.00200
H318        H  0.22888722  0.81734030  0.82343435     0.14300
H319        H  0.35428336  0.71114415  0.82091545     0.14100
O320        O  0.48360397  0.68915300  0.36215396    -0.79100
C321        C  0.35788500  0.71599297  0.22250779     0.82000
O322        O  0.53001284  0.61012147  0.22592924    -0.80200
O323        O  0.46500114  0.77695053  0.11882508    -0.81700
O324        O  0.54276132  0.86357343  0.26687380    -0.81500
O325        O  0.55149792  0.74851638  0.36405332    -0.80100
Zn326      Zn  0.45647074  0.69116006  0.28702188     1.55700
O327        O  0.48770918  0.86346221  0.19548431    -0.81500
Cd328      Cd  0.54526839  0.78419558  0.29006411     1.59700
Cd329      Cd  0.55073252  0.69221696  0.19846715     1.59600
O330        O  0.62392450  0.78591289  0.28351169    -0.81500
O331        O  0.50297162  0.73622970  0.24155386    -1.92000
Cd332      Cd  0.45753788  0.78486071  0.19693842     1.59900
O333        O  0.63092905  0.71856635  0.22416985    -0.81400
O334        O  0.37946486  0.75595215  0.19729356    -0.80100
C335        C  0.49439812  0.58733697  0.25795316     0.82400
C336        C  0.52563667  0.70878463  0.38456643     0.82100
O337        O  0.38089762  0.69282546  0.26235993    -0.79100
C338        C  0.52419356  0.88601058  0.22414746     0.82900
O339        O  0.45995299  0.61497566  0.28250231    -0.79100
C340        C  0.65244664  0.75438739  0.25617651     0.83000
C341        C  0.49615594  0.74764712  0.09156079     0.83400
O342        O  0.52990427  0.71414865  0.11451071    -0.81600
C343        C  0.35443133  0.89974753  0.89935519     0.85900
C344        C  0.38418293  0.85418687  0.93087926    -0.54300
C345        C  0.42147139  0.82249387  0.90344076     0.08800
C346        C  0.41585871  0.83487239  0.83887643     0.19800
C347        C  0.40074485  0.92856915  0.86853902    -0.55100
C348        C  0.43183286  0.89853249  0.83265450     0.08900
C349        C  0.32373873  0.86918814  0.85438111    -0.54600
C350        C  0.35102028  0.83070054  0.82476282     0.09500
H351        H  0.37420215  0.84680965  0.97263662     0.14000
H352        H  0.44148470  0.80784914  0.81337396    -0.00200
H353        H  0.40952483  0.97025707  0.87764305     0.14300
H354        H  0.28285645  0.88033064  0.84424659     0.14100
C355        C  0.47314291  0.93004227  0.79134061     0.85900
C356        C  0.53663836  0.92510574  0.80071638    -0.54300
C357        C  0.56806268  0.95589599  0.76402051     0.08800
C358        C  0.53573825  0.98578658  0.72341882     0.19800
C359        C  0.46518224  0.99405036  0.79029170    -0.55100
C360        C  0.49886383  0.02072885  0.75457233     0.08900
C361        C  0.46639629  0.91549486  0.72996432    -0.54600
C362        C  0.50035902  0.94552394  0.69646744     0.09500
H363        H  0.55428741  0.90167945  0.83361441     0.14000
H364        H  0.56061561  0.01027717  0.69415551    -0.00200
H365        H  0.43596800  0.01738821  0.81338157     0.14300
H366        H  0.43629892  0.88722586  0.71473864     0.14100
C367        C  0.46297716  0.78361131  0.93803516     0.85900
C368        C  0.45645728  0.72136562  0.92846105    -0.54300
C369        C  0.49121517  0.69069794  0.96008351     0.08800
C370        C  0.52780281  0.72079471  0.99701818     0.19800
C371        C  0.45789570  0.78789203  0.00253864    -0.55100
C372        C  0.49208256  0.75389875  0.03163954     0.08900
C373        C  0.52592125  0.79296897  0.92981724    -0.54600
C374        C  0.55855282  0.75921609  0.96199766     0.09500
H375        H  0.42694471  0.70367416  0.90109418     0.14000
H376        H  0.55409036  0.69343407  0.02160657    -0.00200
H377        H  0.43152956  0.81525641  0.02452524     0.14300
H378        H  0.54257503  0.82315640  0.90210944     0.14100
C379        C  0.71240994  0.52954576  0.53537136     0.85900
C380        C  0.77709894  0.53413192  0.53882303    -0.54300
C381        C  0.80606790  0.49980939  0.50447511     0.08800
C382        C  0.77161082  0.46527420  0.47054619     0.19800
C383        C  0.70393634  0.53718598  0.47227906    -0.55100
C384        C  0.73615428  0.50299552  0.43984604     0.08900
C385        C  0.70407069  0.46659378  0.54295699    -0.54600
C386        C  0.73615494  0.43449280  0.50850806     0.09500
H387        H  0.79944846  0.56180114  0.56423608     0.14000
H388        H  0.79633620  0.43855540  0.44413355    -0.00200
H389        H  0.67695119  0.56762127  0.45528583     0.14300
H390        H  0.67676003  0.44938740  0.57324670     0.14100
O391        O  0.73893960  0.61308322  0.27566477    -0.79100
C392        C  0.61866857  0.46532460  0.26155093     0.82000
O393        O  0.77697915  0.46715458  0.35763605    -0.80200
O394        O  0.72620156  0.37115841  0.17927408    -0.81700
O395        O  0.80244296  0.51461793  0.10576803    -0.81500
O396        O  0.80707096  0.61627893  0.21582694    -0.80100
Zn397      Zn  0.71399810  0.53772723  0.27612467     1.55700
O398        O  0.73073763  0.45912582  0.10327823    -0.81500
Cd399      Cd  0.80561790  0.53938987  0.18503392     1.59700
Cd400      Cd  0.80275558  0.44613478  0.27662042     1.59600
O401        O  0.88362237  0.52849890  0.19077560    -0.81500
O402        O  0.76021718  0.49271187  0.23156190    -1.92000
Cd403      Cd  0.71272015  0.44911624  0.18386257     1.59900
O404        O  0.88649589  0.46490264  0.25515131    -0.81400
O405        O  0.63992459  0.43794163  0.22325365    -0.80100
C406        C  0.74353102  0.50108977  0.38008897     0.82400
C407        C  0.77980255  0.63686241  0.25469933     0.82100
O408        O  0.63974601  0.50943199  0.27803724    -0.79100
C409        C  0.77317949  0.47976740  0.08156513     0.82900
O410        O  0.71684277  0.53354977  0.35224719    -0.79100
C411        C  0.91013327  0.49760033  0.22098019     0.83000
C412        C  0.74737107  0.34398865  0.21636191     0.83400
O413        O  0.77527427  0.36660384  0.25451856    -0.81600
C414        C  0.71194761  0.19061888  0.19072056     0.85900
C415        C  0.70753252  0.25338833  0.18077391    -0.54300
C416        C  0.73924323  0.28472923  0.21556699     0.08800
C417        C  0.77097176  0.25339738  0.25624292     0.19800
C418        C  0.77597218  0.18195014  0.19049011    -0.55100
C419        C  0.80502665  0.21586698  0.22464224     0.08900
C420        C  0.69963107  0.18499138  0.25337462    -0.54600
C421        C  0.73194112  0.21816685  0.28638953     0.09500
H422        H  0.68302737  0.27098543  0.14866946     0.14000
H423        H  0.79594249  0.27926362  0.28309365    -0.00200
H424        H  0.79751336  0.15117146  0.16776265     0.14300
H425        H  0.67068820  0.15589941  0.26981759     0.14100
O426        O  0.72832639  0.86102929  0.77560265    -0.79100
C427        C  0.76498402  0.01769275  0.88705906     0.82000
O428        O  0.64889160  0.99629722  0.72271425    -0.80200
O429        O  0.81736941  0.10838851  0.77740554    -0.81700
O430        O  0.89965411  0.95244117  0.70279222    -0.81500
O431        O  0.77587654  0.85971253  0.69885815    -0.80100
Zn432      Zn  0.73303533  0.94082852  0.79631640     1.55700
O433        O  0.89925003  0.03321846  0.74321566    -0.81500
Cd434      Cd  0.81906425  0.93099192  0.70299361     1.59700
Cd435      Cd  0.72932375  0.02545325  0.69840480     1.59600
O436        O  0.82107219  0.93589480  0.62406380    -0.81500
O437        O  0.77484169  0.98333991  0.74476435    -1.92000
Cd438      Cd  0.82675963  0.03077252  0.78346298     1.59900
O439        O  0.75508540  0.99713962  0.61810991    -0.81400
O440        O  0.80783657  0.03608176  0.86431227    -0.80100
C441        C  0.62767459  0.96604428  0.76076574     0.82400
C442        C  0.74024617  0.83878836  0.73014341     0.82100
O443        O  0.73739605  0.97941667  0.86617166    -0.79100
C444        C  0.92133975  0.99878845  0.71197168     0.82900
O445        O  0.65658920  0.94441570  0.79599172    -0.79100
C446        C  0.78954685  0.96357958  0.59600548     0.83000
C447        C  0.78311707  0.13474198  0.75136044     0.83400
O448        O  0.74807997  0.11069800  0.72009170    -0.81600
C449        C  0.81043425  0.28911304  0.79042021     0.85900
C450        C  0.81948526  0.22468833  0.79205070    -0.54300
C451        C  0.78494787  0.19470343  0.75936935     0.08800
C452        C  0.74728782  0.22863638  0.72840176     0.19800
C453        C  0.81570771  0.30019999  0.72765505    -0.55100
C454        C  0.78154333  0.26728072  0.69723404     0.08900
C455        C  0.74801435  0.29443528  0.80186122    -0.54600
C456        C  0.71711841  0.26196752  0.76820669     0.09500
H457        H  0.85150956  0.20401732  0.81383364     0.14000
H458        H  0.72023659  0.20336783  0.70214980    -0.00200
H459        H  0.84428730  0.32870707  0.70963268     0.14300
H460        H  0.73053793  0.32054382  0.83281081     0.14100
O461        O  0.63038340  0.27444407  0.51505229    -0.79100
C462        C  0.77516919  0.25719956  0.63966624     0.82000
O463        O  0.77684672  0.35175720  0.47386415    -0.80200
O464        O  0.87605732  0.18044758  0.53956019    -0.81700
O465        O  0.73474728  0.10206697  0.44939130    -0.81500
O466        O  0.62697891  0.21189959  0.45023368    -0.80100
Zn467      Zn  0.70568559  0.27226977  0.54188216     1.55700
O468        O  0.79260213  0.10100013  0.51898005    -0.81500
Cd469      Cd  0.70399073  0.17989587  0.45178453     1.59700
Cd470      Cd  0.79857139  0.26979696  0.45188370     1.59600
O471        O  0.70742108  0.18752679  0.37281757    -0.81500
O472        O  0.75162998  0.22690574  0.49673068    -1.92000
Cd473      Cd  0.79598281  0.17996565  0.54520315     1.59900
O474        O  0.77268929  0.24979388  0.37008041    -0.81400
O475        O  0.79964026  0.21599802  0.62007852    -0.80100
C476        C  0.74144885  0.37474561  0.50547275     0.82400
C477        C  0.60696051  0.25298717  0.47454402     0.82100
O478        O  0.73373770  0.27757223  0.61673960    -0.79100
C479        C  0.77242354  0.07938785  0.47652153     0.82900
O480        O  0.71008362  0.34746427  0.53424756    -0.79100
C481        C  0.73743354  0.21875027  0.34633768     0.83000
C482        C  0.90358219  0.21099189  0.50965716     0.83400
O483        O  0.88026156  0.24478835  0.47633945    -0.81600
C484        C  0.92503685  0.89323255  0.32488384     0.85900
C485        C  0.87929639  0.86436716  0.29380035    -0.54300
C486        C  0.84634865  0.82829126  0.32136964     0.08800
C487        C  0.85946919  0.83282134  0.38626265     0.19800
C488        C  0.89425528  0.92454350  0.36998357    -0.55100
C489        C  0.85614608  0.89672622  0.40052736     0.08900
C490        C  0.95316797  0.84711934  0.35625301    -0.54600
C491        C  0.92310703  0.81790916  0.39376502     0.09500
H492        H  0.87236897  0.87488707  0.25221269     0.14000
H493        H  0.83215197  0.80751927  0.41196980    -0.00200
H494        H  0.90481434  0.96585377  0.37918694     0.14300
H495        H  0.99467743  0.83743913  0.34694447     0.14100
C496        C  0.81632650  0.93004265  0.44116982     0.85900
C497        C  0.75444522  0.91709024  0.43533836    -0.54300
C498        C  0.72243398  0.94799042  0.46972571     0.08800
C499        C  0.75142383  0.98672165  0.50516230     0.19800
C500        C  0.81705271  0.99434705  0.43318145    -0.55100
C501        C  0.78273116  0.02163686  0.46810579     0.08900
C502        C  0.82670610  0.92406083  0.50415404    -0.54600
C503        C  0.79181880  0.95545224  0.53632309     0.09500
H504        H  0.73794121  0.88917834  0.40561654     0.14000
H505        H  0.72310938  0.01096198  0.53118323    -0.00200
H506        H  0.84036254  0.01674861  0.40317238     0.14300
H507        H  0.85892139  0.89920778  0.52101535     0.14100
C508        C  0.95470764  0.77811965  0.43623410     0.85900
C509        C  0.01907942  0.78351973  0.43385380    -0.54300
C510        C  0.04593503  0.74758870  0.46694862     0.08800
C511        C  0.01084669  0.71204321  0.49960840     0.19800
C512        C  0.94515193  0.71624393  0.42629988    -0.55100
C513        C  0.97510406  0.68386180  0.46073253     0.08900
C514        C  0.94498660  0.78465219  0.49979664    -0.54600
C515        C  0.97655385  0.74914101  0.53171728     0.09500
H516        H  0.04223925  0.81387768  0.41188000     0.14000
H517        H  0.03536408  0.68347396  0.52497983    -0.00200
H518        H  0.91930686  0.70011399  0.39462254     0.14300
H519        H  0.91938637  0.81605802  0.51720442     0.14100
C520        C  0.80606671  0.78869170  0.28603317     0.85900
C521        C  0.81129523  0.79384332  0.22141130    -0.54300
C522        C  0.77822492  0.75916290  0.19195419     0.08800
C523        C  0.74462593  0.72345586  0.22622605     0.19800
C524        C  0.74281886  0.79456182  0.29429502    -0.55100
C525        C  0.71205036  0.75964626  0.26170969     0.08900
C526        C  0.81596501  0.72661794  0.29458375    -0.54600
C527        C  0.78307032  0.69463132  0.26246580     0.09500
H528        H  0.83870383  0.82034850  0.19947978     0.14000
H529        H  0.71974074  0.69520790  0.20135684    -0.00200
H530        H  0.72458978  0.82370613  0.32194117     0.14300
H531        H  0.84625664  0.71001153  0.32185823     0.14100
C532        C  0.31639943  0.43784863  0.43285669     0.85900
C533        C  0.32817517  0.43113270  0.49528084    -0.54300
C534        C  0.29683263  0.46572829  0.52700023     0.08800
C535        C  0.25894698  0.50114888  0.49714907     0.19800
C536        C  0.25208899  0.43039368  0.43152735    -0.55100
C537        C  0.22437727  0.46509834  0.46517852     0.08900
C538        C  0.32359704  0.50056167  0.42252865    -0.54600
C539        C  0.29265771  0.53167206  0.45791556     0.09500
H540        H  0.35627245  0.40170644  0.51212156     0.14000
H541        H  0.23373213  0.52776251  0.52445665    -0.00200
H542        H  0.22956871  0.40042261  0.40885219     0.14300
H543        H  0.34930590  0.51789959  0.39098519     0.14100
O544        O  0.53594630  0.60997955  0.94321135    -0.79100
C545        C  0.66388146  0.47022916  0.95962299     0.82000
O546        O  0.49509664  0.46143822  0.86523210    -0.80200
O547        O  0.56321393  0.36757716  0.03587858    -0.81700
O548        O  0.48124519  0.50921804  0.11898001    -0.81500
O549        O  0.47484546  0.61282294  0.01005577    -0.80100
Zn550      Zn  0.56314013  0.53517822  0.94428338     1.55700
O551        O  0.54845536  0.44853027  0.11733523    -0.81500
Cd552      Cd  0.47790895  0.53652709  0.04103799     1.59700
Cd553      Cd  0.47356553  0.44421904  0.94953484     1.59600
O554        O  0.39889412  0.53163100  0.04033207    -0.81500
O555        O  0.52044684  0.48954065  0.99138801    -1.92000
Cd556      Cd  0.57086231  0.44631392  0.03680302     1.59900
O557        O  0.39347641  0.47194601  0.97312217    -0.81400
O558        O  0.64515410  0.44323365  0.99969892    -0.80100
C559        C  0.52769888  0.49603920  0.84223287     0.82400
C560        C  0.49705651  0.63319854  0.96791590     0.82100
O561        O  0.63905155  0.51115773  0.94031665    -0.79100
C562        C  0.50775640  0.47064537  0.14068869     0.82900
O563        O  0.55540722  0.52779181  0.86968500    -0.79100
C564        C  0.37118259  0.50457066  0.00805492     0.83000
C565        C  0.52938060  0.34063840  0.00988815     0.83400
O566        O  0.49465977  0.36363645  0.97766763    -0.81600
C567        C  0.46718305  0.43146521  0.29012466     0.85900
C568        C  0.45794665  0.49468360  0.29804683    -0.54300
C569        C  0.49274802  0.52738909  0.26653970     0.08800
C570        C  0.53188716  0.49632438  0.23333731     0.19800
C571        C  0.46419204  0.42699493  0.22563169    -0.55100
C572        C  0.49942580  0.46099657  0.19850461     0.08900
C573        C  0.52935560  0.42410291  0.30109142    -0.54600
C574        C  0.56105844  0.45935324  0.27054857     0.09500
H575        H  0.42617501  0.51131993  0.32380148     0.14000
H576        H  0.55961210  0.52260050  0.20847530    -0.00200
H577        H  0.43662862  0.40231903  0.20228147     0.14300
H578        H  0.54615298  0.39359197  0.32813883     0.14100
C579        C  0.34993345  0.32312306  0.32460491     0.85900
C580        C  0.39597628  0.35331113  0.29436292    -0.54300
C581        C  0.42697506  0.38997334  0.32306759     0.08800
C582        C  0.41278502  0.38351328  0.38719449     0.19800
C583        C  0.37957659  0.29150494  0.36968566    -0.55100
C584        C  0.41666982  0.31901491  0.40081964     0.08900
C585        C  0.32026737  0.36849519  0.35504018    -0.54600
C586        C  0.34909043  0.39817024  0.39230424     0.09500
H587        H  0.40377842  0.34395903  0.25253472     0.14000
H588        H  0.43886668  0.40887116  0.41363224    -0.00200
H589        H  0.36923762  0.24983760  0.37762261     0.14300
H590        H  0.27901747  0.37792870  0.34456149     0.14100
C591        C  0.45554409  0.28463943  0.44155061     0.85900
C592        C  0.44593285  0.29386210  0.50415400    -0.54300
C593        C  0.48028710  0.26285174  0.53619678     0.08800
C594        C  0.51843437  0.22729688  0.50645051     0.19800
C595        C  0.51824520  0.29421675  0.43392350    -0.55100
C596        C  0.54918173  0.26290450  0.46902376     0.08900
C597        C  0.45208289  0.21973582  0.43647658    -0.54600
C598        C  0.48561518  0.19196191  0.47185055     0.09500
H599        H  0.41555643  0.32113274  0.52083496     0.14000
H600        H  0.54532979  0.20275788  0.53391958    -0.00200
H601        H  0.53581240  0.32084347  0.40328164     0.14300
H602        H  0.42857134  0.19719943  0.40720470     0.14100
O603        O  0.63906702  0.93019288  0.50969596    -0.79100
C604        C  0.50250457  0.95344359  0.63854571     0.89200
O605        O  0.49294321  0.85646947  0.46343956    -0.80200
O606        O  0.39830683  0.02245798  0.53757847    -0.81700
O607        O  0.53823415  0.11299226  0.45498493    -0.81500
O608        O  0.64597757  0.00105430  0.45368818    -0.80100
Zn609      Zn  0.56429599  0.93439132  0.53689188     1.55700
O610        O  0.47449441  0.10908725  0.51939272    -0.81500
Cd611      Cd  0.56932139  0.03418870  0.45411009     1.59700
Cd612      Cd  0.47526108  0.94168562  0.44614235     1.59600
O613        O  0.56779950  0.03279071  0.37458228    -0.81500
O614        O  0.52051283  0.98316028  0.49425755    -1.92000
Cd615      Cd  0.47665836  0.02855167  0.54397686     1.59900
O616        O  0.50304093  0.97025200  0.36785536    -0.81400
O617        O  0.47620746  0.99367373  0.61940626    -0.80100
C618        C  0.52463035  0.83319562  0.49832327     0.82400
C619        C  0.66455383  0.95680769  0.47358025     0.82100
O620        O  0.54232977  0.93233589  0.61337631    -0.79100
C621        C  0.49736742  0.13359876  0.47963571     0.82900
O622        O  0.55326578  0.86044227  0.52937949    -0.79100
C623        C  0.53740700  0.00411068  0.34622992     0.83000
C624        C  0.37077134  0.99703245  0.50373864     0.83400
O625        O  0.39315142  0.96612850  0.46737709    -0.81600
C626        C  0.56560383  0.03740465  0.19168053     0.85900
C627        C  0.50251397  0.04777403  0.18675474    -0.54300
C628        C  0.47060797  0.01469630  0.22092829     0.08800
C629        C  0.50197650  0.97720810  0.25551930     0.19800
C630        C  0.57519790  0.04298824  0.25458613    -0.55100
C631        C  0.54100736  0.01055405  0.28655179     0.08900
C632        C  0.56780653  0.97321933  0.18320517    -0.54600
C633        C  0.53421686  0.94420412  0.21769933     0.09500
H634        H  0.48515796  0.07620697  0.15785181     0.14000
H635        H  0.47571824  0.95113943  0.28159913    -0.00200
H636        H  0.60597667  0.06934385  0.27174115     0.14300
H637        H  0.59106665  0.95186373  0.15260469     0.14100
C638        C  0.06381500  0.52813272  0.18424220     0.85900
C639        C  0.07074463  0.46481747  0.17595306    -0.54300
C640        C  0.03839645  0.43282389  0.21073649     0.08800
C641        C  0.00355234  0.46426170  0.24872305     0.19800
C642        C  0.99970492  0.53464877  0.18150350    -0.55100
C643        C  0.97000256  0.50047074  0.21507616     0.08900
C644        C  0.07333048  0.53423331  0.24722058    -0.54600
C645        C  0.04085573  0.50004098  0.27956916     0.09500
H646        H  0.09798291  0.44743010  0.14583056     0.14000
H647        H  0.97768339  0.43844410  0.27510455    -0.00200
H648        H  0.97823909  0.56457366  0.15773281     0.14300
H649        H  0.10161648  0.56334338  0.26423840     0.14100
O650        O  0.97259591  0.50591927  0.61114636    -0.79100
C651        C  0.98434661  0.62630388  0.46427121     0.82000
O652        O  0.88792768  0.46431894  0.46061422    -0.80200
O653        O  0.06648381  0.52507560  0.36709647    -0.81700
O654        O  0.14280349  0.44371893  0.51044458    -0.81500
O655        O  0.03206567  0.43793240  0.61265901    -0.80100
Zn656      Zn  0.96924182  0.52807969  0.53456327     1.55700
O657        O  0.14360304  0.51399202  0.45306666    -0.81500
Cd658      Cd  0.06340140  0.44180946  0.53579966     1.59700
Cd659      Cd  0.97137067  0.44100860  0.44196757     1.59600
O660        O  0.05816953  0.36435318  0.52653351    -0.81500
O661        O  0.01539945  0.48488868  0.48877015    -1.92000
Cd662      Cd  0.06319064  0.53414662  0.44594217     1.59900
O663        O  0.99148999  0.35883936  0.46615074    -0.81400
O664        O  0.02592473  0.60781304  0.43964543    -0.80100
C665        C  0.86583452  0.49352984  0.49851512     0.82400
C666        C  0.99347743  0.46468769  0.63421739     0.82100
O667        O  0.96343467  0.60212082  0.50501537    -0.79100
C668        C  0.16619918  0.47242767  0.47421435     0.82900
O669        O  0.89413721  0.51743846  0.53258195    -0.79100
C670        C  0.02614393  0.33677743  0.49895000     0.83000
C671        C  0.03569128  0.49619782  0.33943247     0.83400
O672        O  0.99970638  0.46462892  0.36192117    -0.81600
C673        C  0.06083836  0.18532509  0.53809471     0.85900
C674        C  0.06528818  0.24951268  0.54004519    -0.54300
C675        C  0.02989944  0.27748756  0.50663642     0.08800
C676        C  0.99412044  0.24252834  0.47432369     0.19800
C677        C  0.99770381  0.17647552  0.54770710    -0.55100
C678        C  0.96410045  0.20730976  0.51330661     0.08900
C679        C  0.06651609  0.17527148  0.47507931    -0.54600
C680        C  0.03108106  0.20642234  0.44316473     0.09500
H681        H  0.09475648  0.27225809  0.56295999     0.14000
H682        H  0.96696616  0.26688555  0.44814242    -0.00200
H683        H  0.98157218  0.14926253  0.57861174     0.14300
H684        H  0.09649697  0.14793934  0.45767989     0.14100
C685        C  0.31575166  0.93966595  0.93676237     0.85900
C686        C  0.25333492  0.92494594  0.93637435    -0.54300
C687        C  0.22266431  0.95894622  0.96805580     0.08800
C688        C  0.25242374  0.00079166  0.99765892     0.19800
C689        C  0.31543110  0.00273370  0.92239819    -0.55100
C690        C  0.28206984  0.03271142  0.95646170     0.08900
C691        C  0.32902692  0.93998182  0.99936114    -0.54600
C692        C  0.29362423  0.97136311  0.02890106     0.09500
H693        H  0.23446636  0.89181354  0.91466924     0.14000
H694        H  0.22520553  0.02644364  0.02394177    -0.00200
H695        H  0.33916065  0.02205148  0.89056102     0.14300
H696        H  0.36153210  0.91809089  0.01917423     0.14100
O697        O  0.14327808  0.94670517  0.01755692    -0.79100
C698        C  0.00535727  0.95983244  0.13543623     0.82000
O699        O  0.00103723  0.86077640  0.96013798    -0.80200
O700        O  0.90098188  0.01952003  0.04617747    -0.81700
O701        O  0.03984292  0.11059396  0.94437310    -0.81500
O702        O  0.14271009  0.00063009  0.94472831    -0.80100
Zn703      Zn  0.06651096  0.93876096  0.03418299     1.55700
O704        O  0.97169466  0.10640796  0.00393065    -0.81500
Cd705      Cd  0.06714625  0.03226733  0.94499462     1.59700
Cd706      Cd  0.97433506  0.94289320  0.94257631     1.59600
O707        O  0.06263477  0.02898179  0.86636156    -0.81500
O708        O  0.02098293  0.98373065  0.98897994    -1.92000
Cd709      Cd  0.97940000  0.03070299  0.03880209     1.59900
O710        O  0.99515590  0.96967397  0.85939394    -0.81400
O711        O  0.98997534  0.00601104  0.11714418    -0.80100
C712        C  0.03857589  0.83821229  0.98939542     0.82400
C713        C  0.16516764  0.96491489  0.97433820     0.82100
O714        O  0.03640356  0.92907049  0.10841286    -0.79100
C715        C  0.99683434  0.13036388  0.96532752     0.82900
O716        O  0.06963442  0.86549949  0.01796456    -0.79100
C717        C  0.03090909  0.00223315  0.83772153     0.83000
C718        C  0.87222591  0.99359404  0.01382584     0.83400
O719        O  0.89379458  0.96508042  0.97465700    -0.81600
C720        C  0.96586424  0.93015789  0.28631716     0.85900
C721        C  0.95203362  0.99251891  0.28584833    -0.54300
C722        C  0.98716282  0.02225954  0.25439623     0.08800
C723        C  0.02900541  0.99161604  0.22511501     0.19800
C724        C  0.96699744  0.91605340  0.22345410    -0.55100
C725        C  0.99965964  0.95058479  0.19348726     0.08900
C726        C  0.02855697  0.92973777  0.30117032    -0.54600
C727        C  0.05949751  0.96198102  0.26691351     0.09500
H728        H  0.91882007  0.01202385  0.30719844     0.14000
H729        H  0.05553948  0.01835925  0.19906091    -0.00200
H730        H  0.94409654  0.88413157  0.20389387     0.14300
H731        H  0.04695373  0.90697379  0.33399462     0.14100
C732        C  0.95932366  0.28300428  0.93909065     0.85900
C733        C  0.95668759  0.21988441  0.92527909    -0.54300
C734        C  0.98772823  0.18840203  0.95965309     0.08800
C735        C  0.01898340  0.21858283  0.00007530     0.19800
C736        C  0.94597607  0.28374838  0.00213130    -0.55100
C737        C  0.97971443  0.25052556  0.03188806     0.08900
C738        C  0.02210045  0.29451915  0.93822046    -0.54600
C739        C  0.05082676  0.25830151  0.96899110     0.09500
H740        H  0.93452301  0.20154674  0.89219014     0.14000
H741        H  0.04496491  0.19164719  0.02616341    -0.00200
H742        H  0.91506776  0.30799194  0.02197565     0.14300
H743        H  0.04268937  0.32726966  0.91710601     0.14100
O744        O  0.23826593  0.11569723  0.93771565    -0.79100
C745        C  0.10778173  0.25222533  0.97634059     0.82000
O746        O  0.27848588  0.25911518  0.86807153    -0.80200
O747        O  0.20955556  0.35880125  0.03116410    -0.81700
O748        O  0.29270050  0.22259740  0.11573857    -0.81500
O749        O  0.29208966  0.11007025  0.00979702    -0.80100
Zn750      Zn  0.20696279  0.19068119  0.94637693     1.55700
O751        O  0.22867240  0.28630209  0.11506534    -0.81500
Cd752      Cd  0.29325956  0.18730075  0.04059543     1.59700
Cd753      Cd  0.30087134  0.27911492  0.95059859     1.59600
O754        O  0.37322591  0.18731626  0.03989125    -0.81500
O755        O  0.25215818  0.23517486  0.99160107    -1.92000
Cd756      Cd  0.20503711  0.28127990  0.03779792     1.59900
O757        O  0.38064318  0.25226925  0.97763129    -0.81400
O758        O  0.12976291  0.28246424  0.01101146    -0.80100
C759        C  0.23971310  0.23235968  0.84467677     0.82400
C760        C  0.27407747  0.09082275  0.96520695     0.82100
O761        O  0.13025922  0.20947309  0.95754734    -0.79100
C762        C  0.26886329  0.26338708  0.13704537     0.82900
O763        O  0.20462240  0.20746785  0.87165120    -0.79100
C764        C  0.40217461  0.21779778  0.01138164     0.83000
C765        C  0.24432835  0.38478502  0.00532255     0.83400
O766        O  0.28013816  0.36089244  0.97483356    -0.81600
O767        O  0.31242278  0.01305665  0.11043928    -0.79100
C768        C  0.28444111  0.13831363  0.24385230     0.82000
O769        O  0.38802955  0.97180537  0.25579934    -0.80200
O770        O  0.22654068  0.04339712  0.35209357    -0.81700
O771        O  0.13938925  0.94783751  0.21857849    -0.81500
O772        O  0.24258534  0.95564184  0.10664219    -0.80100
Zn773      Zn  0.30919654  0.03902232  0.18448074     1.55700
O774        O  0.13918811  0.01119179  0.28270303    -0.81500
Cd775      Cd  0.21558035  0.95012090  0.18458651     1.59700
Cd776      Cd  0.30538139  0.94638286  0.27606211     1.59600
O777        O  0.22106122  0.87048529  0.18512081    -0.81500
O778        O  0.26407979  0.99345994  0.23052164    -1.92000
Cd779      Cd  0.21639271  0.04125419  0.27408110     1.59900
O780        O  0.27962923  0.86389709  0.25305284    -0.81400
O781        O  0.24376306  0.11769960  0.26835940    -0.80100
C782        C  0.41088171  0.00746575  0.22387241     0.82400
C783        C  0.28541276  0.97694619  0.08631717     0.82100
O784        O  0.30842442  0.11487004  0.20494621    -0.79100
C785        C  0.11749320  0.97053260  0.25971412     0.82900
O786        O  0.38361238  0.03670549  0.19336106    -0.79100
C787        C  0.24724733  0.84191535  0.21775304     0.83000
C788        C  0.25047452  0.00833838  0.37945807     0.83400
O789        O  0.27919095  0.97032604  0.35678353    -0.81600
O790        O  0.03230476  0.10188713  0.27305241    -0.79100
C791        C  0.15972567  0.24302231  0.26160131     0.82000
O792        O  0.99722312  0.24875245  0.36111641    -0.80200
O793        O  0.05963151  0.34401880  0.18384640    -0.81700
O794        O  0.95732440  0.21227940  0.11544063    -0.81500
O795        O  0.96902479  0.10197176  0.20858080    -0.80100
Zn796      Zn  0.06044020  0.17620407  0.27968467     1.55700
O797        O  0.03428973  0.25928341  0.10851906    -0.81500
Cd798      Cd  0.96682404  0.18067307  0.19061219     1.59700
Cd799      Cd  0.97317357  0.27252984  0.28011557     1.59600
O800        O  0.89059641  0.18287519  0.20663251    -0.81500
O801        O  0.01531097  0.22393763  0.23682488    -1.92000
Cd802      Cd  0.06312579  0.26432199  0.18650756     1.59900
O803        O  0.88863769  0.25523560  0.26006942    -0.81400
O804        O  0.13827201  0.26713637  0.22117806    -0.80100
C805        C  0.02675000  0.21119732  0.38341039     0.82400
C806        C  0.99325907  0.07954975  0.24786567     0.82100
O807        O  0.13749995  0.20173615  0.28358212    -0.79100
C808        C  0.98831334  0.24426325  0.08972057     0.82900
O809        O  0.05215493  0.17747731  0.35555414    -0.79100
C810        C  0.86456729  0.21823160  0.23154962     0.83000
C811        C  0.03306495  0.37287976  0.21593504     0.83400
O812        O  0.00148579  0.35145096  0.25267313    -0.81600
C813        C  0.31041339  0.28629366  0.28634276     0.85900
C814        C  0.24809727  0.28350137  0.30334717    -0.54300
C815        C  0.21767005  0.25183498  0.26870760     0.08800
C816        C  0.24839072  0.22627994  0.22436778     0.19800
C817        C  0.32652065  0.22452424  0.28257013    -0.55100
C818        C  0.29201190  0.19545035  0.25026924     0.08900
C819        C  0.30780690  0.30400997  0.22475882    -0.54600
C820        C  0.27550738  0.27034007  0.19450261     0.09500
H821        H  0.22967922  0.30430213  0.33755462     0.14000
H822        H  0.22222626  0.20022964  0.19762857    -0.00200
H823        H  0.35992585  0.20497862  0.30337221     0.14300
H824        H  0.32963398  0.33759950  0.20625974     0.14100
C825        C  0.67824617  0.07720484  0.07685420     0.85900
C826        C  0.64487933  0.04520073  0.12009186    -0.54300
C827        C  0.60690640  0.07257357  0.15157668     0.08800
C828        C  0.61343600  0.13754207  0.13964516     0.19800
C829        C  0.63401821  0.11003155  0.04628263    -0.55100
C830        C  0.60032714  0.14539584  0.07481190     0.08900
C831        C  0.70767893  0.12073301  0.11064840    -0.54600
C832        C  0.67826739  0.15107805  0.14793525     0.09500
H833        H  0.65362864  0.00296450  0.12662372     0.14000
H834        H  0.58670814  0.16260480  0.16601491    -0.00200
H835        H  0.62935099  0.10246168  0.00383725     0.14300
H836        H  0.75014017  0.12747270  0.10301224     0.14100
C837        C  0.67451628  0.64605198  0.64784627     0.85900
C838        C  0.63329720  0.61064201  0.68008404    -0.54300
C839        C  0.60185594  0.57303148  0.65275288     0.08800
C840        C  0.61223689  0.58145673  0.58747824     0.19800
C841        C  0.70571749  0.60376241  0.61270220    -0.55100
C842        C  0.67749037  0.57053929  0.57719849     0.08900
C843        C  0.63843605  0.67564271  0.60607439    -0.54600
C844        C  0.60142792  0.64632239  0.57566198     0.09500
H845        H  0.62749239  0.61824768  0.72249177     0.14000
H846        H  0.58614751  0.55471230  0.56245385    -0.00200
H847        H  0.74844577  0.59946183  0.61845776     0.14300
H848        H  0.64490459  0.71815079  0.60024418     0.14100
loop_ 
_geom_bond_atom_site_label_1 
_geom_bond_atom_site_label_2 
_geom_bond_distance 
_geom_bond_site_symmetry_2 
_ccdc_geom_bond_type 
C1            C2   1.595       .  S
C1            C7   1.575   1_545  S
C1            C5   1.583   1_554  S
C1          C825   1.681       .  S
C2            H9   1.083       .  S
C2            C3   1.400       .  D
C3            C4   1.469   1_544  S
C3          C718   1.491   1_545  S
C4            C8   1.472       .  S
C4            C6   1.469   1_565  S
C4           H10   1.118       .  S
C5           H11   1.082       .  S
C5            C6   1.382       .  D
C6          C427   1.445       .  S
C7           H12   1.082       .  S
C7            C8   1.374   1_554  D
C8          C114   1.444       .  S
C13          C14   1.598       .  S
C13          C19   1.585       .  S
C13          C17   1.584       .  S
C13         C837   1.686       .  S
C14          H21   1.082       .  S
C14          C15   1.390       .  D
C15          C16   1.467       .  S
C15         C442   1.467       .  S
C16          C20   1.468       .  S
C16          C18   1.468       .  S
C16          H22   1.124       .  S
C17          H23   1.081       .  S
C17          C18   1.379       .  D
C18         C301   1.448       .  S
C19          H24   1.081       .  S
C19          C20   1.379       .  D
C20         C112   1.453       .  S
C25          C26   1.572   1_545  S
C25          C31   1.598       .  S
C25          C29   1.569       .  S
C25         C174   1.631       .  S
C26          H33   1.084       .  S
C26          C27   1.387       .  D
C27          C28   1.476       .  S
C27         C286   1.451       .  S
C28          C32   1.466   1_565  S
C28          C30   1.480   1_465  S
C28          H34   1.119   1_455  S
C29          H35   1.084   1_455  S
C29          C30   1.388   1_455  D
C30         C444   1.450   1_545  S
C31          H36   1.080       .  S
C31          C32   1.387       .  D
C32         C717   1.489       .  S
C37          C38   1.573       .  S
C37          C43   1.575       .  S
C37          C41   1.590       .  S
C37         C167   1.700       .  S
C38          H45   1.082       .  S
C38          C39   1.387       .  D
C39          C40   1.478       .  S
C39          C70   1.464       .  S
C40          C44   1.478       .  S
C40          C42   1.475       .  S
C40          H46   1.106       .  S
C41          H47   1.082       .  S
C41          C42   1.396       .  D
C42         C759   1.481       .  S
C43          H48   1.082       .  S
C43          C44   1.389       .  D
C44         C282   1.469       .  S
O49          C65   1.276       .  A
O49         Zn55   1.980       .  S
C50         C593   1.455       .  S
C50          O66   1.278       .  A
C50          O63   1.269       .  A
O51          C64   1.294       .  A
O51         Cd58   2.148       .  S
O52          C70   1.245       .  A
O52         Cd61   1.940       .  S
O53          C67   1.269       .  A
O53         Cd57   2.029       .  S
O54          C65   1.269       .  A
O54         Cd57   2.034       .  S
Zn55         O66   1.996       .  S
Zn55         O68   1.892       .  S
Zn55         O60   1.920       .  S
O56          C67   1.274       .  A
O56         Cd61   2.034       .  S
Cd57         O59   1.941       .  S
Cd57         O60   1.957       .  S
Cd58         O62   2.158       .  S
Cd58         O71   2.132       .  S
Cd58         O60   1.905       .  S
O59          C69   1.247       .  A
O60         Cd61   1.970       .  S
Cd61         O63   2.060       .  S
O62          C69   1.293       .  A
C64          C77   1.482       .  S
C64          O68   1.243       .  A
C65         C456   1.442       .  S
C67         C360   1.449       .  S
C69          C89   1.475       .  S
C70          O71   1.292       .  A
C72          C73   1.595       .  S
C72          C78   1.563       .  S
C72          C76   1.577       .  S
C72         C839   1.658       .  S
C73          H80   1.079       .  S
C73          C74   1.388       .  D
C74          C75   1.465       .  S
C74         C559   1.483       .  S
C75          C79   1.482       .  S
C75          C77   1.483       .  S
C75          H81   1.105       .  S
C76          H82   1.085       .  S
C76          C77   1.402       .  D
C78          H83   1.085       .  S
C78          C79   1.392       .  D
C79         C277   1.465       .  S
C84          C85   1.583       .  S
C84          C90   1.572       .  S
C84          C88   1.588   1_554  S
C84         C830   1.672       .  S
C85          H92   1.085       .  S
C85          C86   1.407       .  D
C86          C87   1.484   1_554  S
C86         C764   1.490       .  S
C87          C91   1.483   1_556  S
C87          C89   1.471       .  S
C87          H93   1.106       .  S
C88          H94   1.077       .  S
C88          C89   1.381       .  D
C90          H95   1.085       .  S
C90          C91   1.400       .  D
C91         C565   1.477       .  S
O96         C112   1.276       .  A
O96        Zn102   1.999       .  S
C97         C186   1.438       .  S
C97         O113   1.269   1_554  A
C97         O110   1.270       .  A
O98         C111   1.299       .  A
O98        Cd105   2.169   1_556  S
O99         C117   1.244       .  A
O99        Cd108   1.935       .  S
O100        C114   1.276       .  A
O100       Cd104   2.051       .  S
O101        C112   1.268       .  A
O101       Cd104   2.037       .  S
Zn102       O113   1.953       .  S
Zn102       O115   1.876       .  S
Zn102       O107   1.931       .  S
O103        C114   1.267   1_554  A
O103       Cd108   2.013       .  S
Cd104       O106   1.949       .  S
Cd104       O107   1.974       .  S
Cd105       O109   2.174   1_554  S
Cd105       O118   2.197       .  S
Cd105       O107   1.908   1_554  S
O106        C116   1.244       .  A
O107       Cd108   1.970   1_556  S
Cd108       O110   2.039       .  S
O109        C116   1.299       .  A
C111        C150   1.482       .  S
C111        O115   1.242       .  A
C116        C374   1.481       .  S
C117        C522   1.485       .  S
C117        O118   1.299       .  A
C119        C120   1.549       .  S
C119        C125   1.530       .  S
C119        C123   1.540       .  S
C119        C732   1.649       .  S
C120        H127   1.070       .  S
C120        C121   1.379       .  D
C121        C122   1.614       .  S
C121        C131   1.628       .  S
C122        C126   1.629       .  S
C122        C124   1.618       .  S
C122        H128   1.109       .  S
C123        H129   1.069       .  S
C123        C124   1.381       .  D
C124        C143   1.625       .  S
C125        H130   1.073       .  S
C125        C126   1.370       .  D
C126        C449   1.629       .  S
C131        C132   1.592   1_655  S
C131        C137   1.560       .  S
C131        C135   1.583       .  S
C132        H139   1.081       .  S
C132        C133   1.375       .  D
C133        C134   1.466       .  S
C133        C280   1.455       .  S
C134        C138   1.478   1_455  S
C134        C136   1.475   1_455  S
C134        H140   1.117       .  S
C135        H141   1.084       .  S
C135        C136   1.404       .  D
C136        C305   1.487       .  S
C137        H142   1.085       .  S
C137        C138   1.380       .  D
C138        C666   1.440       .  S
C143        C144   1.590       .  S
C143        C149   1.581       .  S
C143        C147   1.564       .  S
C144        H151   1.079   1_556  S
C144        C145   1.371   1_556  D
C145        C146   1.464   1_554  S
C145        C409   1.455       .  S
C146        C150   1.474       .  S
C146        C148   1.478       .  S
C146        H152   1.117   1_556  S
C147        H153   1.084       .  S
C147        C148   1.381       .  D
C148        C545   1.439       .  S
C149        H154   1.084       .  S
C149        C150   1.402       .  D
C155        C156   1.580   1_545  S
C155        C161   1.571       .  S
C155        C159   1.587       .  S
C155        C169   1.670       .  S
C156        H163   1.084       .  S
C156        C157   1.406       .  D
C157        C158   1.483       .  S
C157        C259   1.487       .  S
C158        C162   1.482   1_565  S
C158        C160   1.473   1_565  S
C158        H164   1.106       .  S
C159        H165   1.080       .  S
C159        C160   1.387       .  D
C160        C624   1.479   1_545  S
C161        H166   1.085       .  S
C161        C162   1.400       .  D
C162        C788   1.475       .  S
C167        C168   1.563       .  S
C167        C173   1.540       .  S
C167        C171   1.561       .  S
C168        H175   1.073       .  S
C168        C169   1.394       .  D
C169        C170   1.634       .  S
C170        C174   1.623       .  S
C170        C172   1.634       .  S
C170        H176   1.109       .  S
C171        H177   1.070       .  S
C171        C172   1.396       .  D
C172        C673   1.673       .  S
C173        H178   1.071       .  S
C173        C174   1.379       .  D
C179        C180   1.580   1_554  S
C179        C185   1.575   1_455  S
C179        C183   1.586       .  S
C179        C215   1.664       .  S
C180        H187   1.083       .  S
C180        C181   1.379       .  D
C181        C182   1.472   1_455  S
C181        C303   1.450       .  S
C182        C186   1.471   1_556  S
C182        C184   1.467   1_655  S
C182        H188   1.119       .  S
C183        H189   1.083       .  S
C183        C184   1.393   1_554  D
C184        C712   1.474       .  S
C185        H190   1.083       .  S
C185        C186   1.376       .  D
C191        C192   1.568       .  S
C191        C197   1.594   1_554  S
C191        C195   1.571       .  S
C191        C217   1.662       .  S
C192        H199   1.085       .  S
C192        C193   1.399       .  D
C193        C194   1.481   1_554  S
C193        C765   1.469       .  S
C194        C198   1.471       .  S
C194        C196   1.483   1_556  S
C194        H200   1.106       .  S
C195        H201   1.085       .  S
C195        C196   1.400       .  D
C196        C564   1.477       .  S
C197        H202   1.080       .  S
C197        C198   1.384       .  D
C198        C283   1.483       .  S
C203        C204   1.576       .  S
C203        C209   1.563       .  S
C203        C207   1.603       .  S
C203        C222   1.654       .  S
C204        H211   1.085       .  S
C204        C205   1.401       .  D
C205        C206   1.479       .  S
C205        C260   1.483       .  S
C206        C210   1.482       .  S
C206        C208   1.470       .  S
C206        H212   1.112       .  S
C207        H213   1.081       .  S
C207        C208   1.392       .  D
C208        C787   1.494       .  S
C209        H214   1.085       .  S
C209        C210   1.386       .  D
C210        C321   1.443       .  S
C215        C216   1.541       .  S
C215        C221   1.539       .  S
C215        C219   1.553       .  S
C216        H223   1.073       .  S
C216        C217   1.381       .  D
C217        C218   1.643       .  S
C218        C222   1.646       .  S
C218        C220   1.638       .  S
C218        H224   1.109       .  S
C219        H225   1.072       .  S
C219        C220   1.390       .  D
C220        C638   1.670       .  S
C221        H226   1.074       .  S
C221        C222   1.378       .  D
C227        C228   1.562       .  S
C227        C233   1.593       .  S
C227        C231   1.595       .  S
C227        C844   1.665       .  S
C228        H235   1.085       .  S
C228        C229   1.384       .  D
C229        C230   1.480       .  S
C229        C336   1.437       .  S
C230        C234   1.475       .  S
C230        C232   1.464       .  S
C230        H236   1.113       .  S
C231        H237   1.077       .  S
C231        C232   1.385       .  D
C232        C618   1.483       .  S
C233        H238   1.085       .  S
C233        C234   1.413       .  D
C234        C254   1.497       .  S
O239        C255   1.272       .  A
O239       Zn245   1.972       .  S
C240        C539   1.448       .  S
C240        O256   1.276       .  A
C240        O253   1.266       .  A
O241        C254   1.303       .  A
O241       Cd248   2.203       .  S
O242        C260   1.244       .  A
O242       Cd251   1.945       .  S
O243        C257   1.270       .  A
O243       Cd247   2.048       .  S
O244        C255   1.273       .  A
O244       Cd247   2.049       .  S
Zn245       O256   1.990       .  S
Zn245       O258   1.885       .  S
Zn245       O250   1.929       .  S
O246        C257   1.273       .  A
O246       Cd251   2.023       .  S
Cd247       O249   1.951       .  S
Cd247       O250   1.982       .  S
Cd248       O252   2.195       .  S
Cd248       O261   2.187       .  S
Cd248       O250   1.902       .  S
O249        C259   1.245       .  A
O250       Cd251   1.979       .  S
Cd251       O253   2.039       .  S
O252        C259   1.302       .  A
C254        O258   1.240       .  A
C255        C310   1.446       .  S
C257        C510   1.451       .  S
C260        O261   1.301       .  A
O262        C278   1.272       .  A
O262       Zn268   1.990       .  S
C263        C315   1.445       .  S
C263        O279   1.272       .  A
C263        O276   1.272       .  A
O264        C277   1.289       .  A
O264       Cd271   2.114       .  S
O265        C283   1.247       .  A
O265       Cd274   1.954       .  S
O266        C280   1.273       .  A
O266       Cd270   2.049       .  S
O267        C278   1.271       .  A
O267       Cd270   2.035       .  S
Zn268       O279   1.979       .  S
Zn268       O281   1.862       .  S
Zn268       O273   1.932       .  S
O269        C280   1.274       .  A
O269       Cd274   2.052       .  S
Cd270       O272   1.938       .  S
Cd270       O273   1.973       .  S
Cd271       O275   2.141       .  S
Cd271       O284   2.165       .  S
Cd271       O273   1.914       .  S
O272        C282   1.244       .  A
O273       Cd274   1.973       .  S
Cd274       O276   2.041       .  S
O275        C282   1.292       .  A
C277        O281   1.241       .  A
C278        C534   1.448       .  S
C283        O284   1.294       .  A
O285        C301   1.278       .  A
O285       Zn291   2.001       .  S
C286        O302   1.269       .  A
C286        O299   1.276       .  A
O287        C300   1.305   1_455  A
O287       Cd294   2.206       .  S
O288        C306   1.244       .  A
O288       Cd297   1.948       .  S
O289        C303   1.272   1_655  A
O289       Cd293   2.042       .  S
O290        C301   1.265       .  A
O290       Cd293   2.016       .  S
Zn291       O302   1.982   1_655  S
Zn291       O304   1.865       .  S
Zn291       O296   1.943   1_655  S
O292        C303   1.272       .  A
O292       Cd297   2.041       .  S
Cd293       O295   1.940       .  S
Cd293       O296   1.977   1_655  S
Cd294       O298   2.203       .  S
Cd294       O307   2.243       .  S
Cd294       O296   1.909       .  S
O295        C305   1.242       .  A
O296       Cd297   1.972       .  S
Cd297       O299   2.061       .  S
O298        C305   1.303   1_455  A
C300        C515   1.492       .  S
C300        O304   1.240       .  A
C306        C313   1.503       .  S
C306        O307   1.308       .  A
C308        C309   1.570       .  S
C308        C314   1.566       .  S
C308        C312   1.611       .  S
C308        C350   1.641       .  S
C309        H316   1.085       .  S
C309        C310   1.387       .  D
C310        C311   1.475       .  S
C311        C315   1.478       .  S
C311        C313   1.462       .  S
C311        H317   1.119       .  S
C312        H318   1.081       .  S
C312        C313   1.397       .  D
C314        H319   1.085       .  S
C314        C315   1.385       .  D
O320        C336   1.271       .  A
O320       Zn326   1.969       .  S
C321        O337   1.268       .  A
C321        O334   1.274       .  A
O322        C335   1.300       .  A
O322       Cd329   2.186       .  S
O323        C341   1.246       .  A
O323       Cd332   1.939       .  S
O324        C338   1.272       .  A
O324       Cd328   2.033       .  S
O325        C336   1.267       .  A
O325       Cd328   2.024       .  S
Zn326       O337   1.959       .  S
Zn326       O339   1.879       .  S
Zn326       O331   1.940       .  S
O327        C338   1.273       .  A
O327       Cd332   2.071       .  S
Cd328       O330   1.941       .  S
Cd328       O331   1.980       .  S
Cd329       O333   2.175       .  S
Cd329       O342   2.196       .  S
Cd329       O331   1.915       .  S
O330        C340   1.242       .  A
O331       Cd332   1.972       .  S
Cd332       O334   2.048       .  S
O333        C340   1.298       .  A
C335        C569   1.489       .  S
C335        O339   1.241       .  A
C338        C633   1.460       .  S
C340        C525   1.479       .  S
C341        C372   1.485       .  S
C341        O342   1.300       .  A
C343        C344   1.547       .  S
C343        C349   1.541       .  S
C343        C347   1.536       .  S
C343        C685   1.647       .  S
C344        H351   1.069       .  S
C344        C345   1.379       .  D
C345        C346   1.622       .  S
C345        C367   1.639       .  S
C346        C350   1.638       .  S
C346        C348   1.621       .  S
C346        H352   1.109       .  S
C347        H353   1.072       .  S
C347        C348   1.380       .  D
C348        C355   1.627       .  S
C349        H354   1.073       .  S
C349        C350   1.370       .  D
C355        C356   1.585       .  S
C355        C361   1.562       .  S
C355        C359   1.586       .  S
C356        H363   1.084       .  S
C356        C357   1.404       .  D
C357        C358   1.475       .  S
C357        C441   1.489       .  S
C358        C362   1.479       .  S
C358        C360   1.464   1_565  S
C358        H364   1.117   1_565  S
C359        H365   1.080   1_565  S
C359        C360   1.370   1_565  D
C361        H366   1.085       .  S
C361        C362   1.382       .  D
C362        C604   1.438       .  S
C367        C368   1.558       .  S
C367        C373   1.577       .  S
C367        C371   1.594   1_556  S
C368        H375   1.085       .  S
C368        C369   1.382       .  D
C369        C370   1.482       .  S
C369        C560   1.434       .  S
C370        C374   1.481       .  S
C370        C372   1.468   1_556  S
C370        H376   1.113   1_556  S
C371        H377   1.079       .  S
C371        C372   1.386       .  D
C373        H378   1.085       .  S
C373        C374   1.401       .  D
C379        C380   1.598       .  S
C379        C385   1.572       .  S
C379        C383   1.577       .  S
C379        C842   1.676       .  S
C380        H387   1.078       .  S
C380        C381   1.390       .  D
C381        C382   1.466       .  S
C381        C665   1.485       .  S
C382        C386   1.480       .  S
C382        C384   1.481       .  S
C382        H388   1.105       .  S
C383        H389   1.085       .  S
C383        C384   1.403       .  D
C384        C406   1.480       .  S
C385        H390   1.085       .  S
C385        C386   1.400       .  D
C386        C476   1.477       .  S
O391        C407   1.269       .  A
O391       Zn397   1.952       .  S
C392        C574   1.441       .  S
C392        O408   1.271       .  A
C392        O405   1.270       .  A
O393        C406   1.295       .  A
O393       Cd400   2.152       .  S
O394        C412   1.245       .  A
O394       Cd403   1.949       .  S
O395        C409   1.271       .  A
O395       Cd399   2.046       .  S
O396        C407   1.271       .  A
O396       Cd399   2.040       .  S
Zn397       O408   1.955       .  S
Zn397       O410   1.876       .  S
Zn397       O402   1.927       .  S
O398        C409   1.274       .  A
O398       Cd403   2.042       .  S
Cd399       O401   1.944       .  S
Cd399       O402   1.962       .  S
Cd400       O404   2.173       .  S
Cd400       O413   2.142       .  S
Cd400       O402   1.908       .  S
O401        C411   1.248       .  A
O402       Cd403   1.979       .  S
Cd403       O405   2.049       .  S
O404        C411   1.296       .  A
C406        O410   1.241       .  A
C407        C527   1.436       .  S
C411        C643   1.481       .  S
C412        C416   1.471       .  S
C412        O413   1.293       .  A
C414        C415   1.566       .  S
C414        C420   1.574       .  S
C414        C418   1.589       .  S
C414        C832   1.660       .  S
C415        H422   1.085       .  S
C415        C416   1.395       .  D
C416        C417   1.486       .  S
C417        C421   1.486       .  S
C417        C419   1.468       .  S
C417        H423   1.107       .  S
C418        H424   1.080       .  S
C418        C419   1.387       .  D
C419        C810   1.477       .  S
C420        H425   1.085       .  S
C420        C421   1.403       .  D
C421        C481   1.481       .  S
O426        C442   1.279       .  A
O426       Zn432   2.032       .  S
C427        O443   1.272   1_545  A
C427        O440   1.273       .  A
O428        C441   1.300       .  A
O428       Cd435   2.184   1_565  S
O429        C447   1.243       .  A
O429       Cd438   1.928       .  S
O430        C444   1.280       .  A
O430       Cd434   2.051       .  S
O431        C442   1.270       .  A
O431       Cd434   2.053       .  S
Zn432       O443   1.969       .  S
Zn432       O445   1.883       .  S
Zn432       O437   1.932       .  S
O433        C444   1.266   1_545  A
O433       Cd438   2.035       .  S
Cd434       O436   1.945       .  S
Cd434       O437   1.973       .  S
Cd435       O439   2.186   1_545  S
Cd435       O448   2.214       .  S
Cd435       O437   1.906   1_545  S
O436        C446   1.243       .  A
O437       Cd438   1.980   1_565  S
Cd438       O440   2.044       .  S
O439        C446   1.301       .  A
C441        O445   1.242       .  A
C446        C503   1.483       .  S
C447        C451   1.489       .  S
C447        O448   1.302       .  A
C449        C450   1.600       .  S
C449        C455   1.565       .  S
C449        C453   1.571       .  S
C450        H457   1.081       .  S
C450        C451   1.387       .  D
C451        C452   1.463       .  S
C452        C456   1.476       .  S
C452        C454   1.479       .  S
C452        H458   1.120       .  S
C453        H459   1.085       .  S
C453        C454   1.390       .  D
C454        C462   1.447       .  S
C455        H460   1.084       .  S
C455        C456   1.383       .  D
O461        C477   1.270       .  A
O461       Zn467   1.971       .  S
C462        O478   1.270       .  A
C462        O475   1.273       .  A
O463        C476   1.295       .  A
O463       Cd470   2.155       .  S
O464        C482   1.246       .  A
O464       Cd473   1.974       .  S
O465        C479   1.273       .  A
O465       Cd469   2.059       .  S
O466        C477   1.273       .  A
O466       Cd469   2.052       .  S
Zn467       O478   1.974       .  S
Zn467       O480   1.861       .  S
Zn467       O472   1.936       .  S
O468        C479   1.276       .  A
O468       Cd473   2.050       .  S
Cd469       O471   1.952       .  S
Cd469       O472   1.989       .  S
Cd470       O474   2.172       .  S
Cd470       O483   2.189       .  S
Cd470       O472   1.908       .  S
O471        C481   1.245       .  A
O472       Cd473   1.988       .  S
Cd473       O475   2.048       .  S
O474        C481   1.298       .  A
C476        O480   1.239       .  A
C477        C596   1.449       .  S
C479        C501   1.458       .  S
C482        C678   1.495       .  S
C482        O483   1.301       .  A
C484        C485   1.539       .  S
C484        C490   1.536       .  S
C484        C488   1.547       .  S
C484        C720   1.648       .  S
C485        H492   1.069       .  S
C485        C486   1.376       .  D
C486        C487   1.634       .  S
C486        C520   1.643       .  S
C487        C491   1.619       .  S
C487        C489   1.613       .  S
C487        H493   1.109       .  S
C488        H494   1.074       .  S
C488        C489   1.378       .  D
C489        C496   1.620       .  S
C490        H495   1.072       .  S
C490        C491   1.379       .  D
C491        C508   1.630       .  S
C496        C497   1.563       .  S
C496        C502   1.578       .  S
C496        C500   1.593       .  S
C497        H504   1.085       .  S
C497        C498   1.382       .  D
C498        C499   1.479       .  S
C498        C619   1.443       .  S
C499        C503   1.474       .  S
C499        C501   1.465   1_565  S
C499        H505   1.117   1_565  S
C500        H506   1.081   1_565  S
C500        C501   1.377   1_565  D
C502        H507   1.084       .  S
C502        C503   1.398       .  D
C508        C509   1.590   1_655  S
C508        C514   1.588       .  S
C508        C512   1.560       .  S
C509        H516   1.080       .  S
C509        C510   1.372       .  D
C510        C511   1.463       .  S
C511        C515   1.471   1_455  S
C511        C513   1.477   1_455  S
C511        H517   1.117       .  S
C512        H518   1.085       .  S
C512        C513   1.377       .  D
C513        C651   1.436       .  S
C514        H519   1.084       .  S
C514        C515   1.409       .  D
C520        C521   1.598       .  S
C520        C526   1.560       .  S
C520        C524   1.575       .  S
C521        H528   1.079       .  S
C521        C522   1.387       .  D
C522        C523   1.467       .  S
C523        C527   1.482       .  S
C523        C525   1.481       .  S
C523        H529   1.113       .  S
C524        H530   1.085       .  S
C524        C525   1.401       .  D
C526        H531   1.085       .  S
C526        C527   1.382       .  D
C532        C533   1.572       .  S
C532        C538   1.572       .  S
C532        C536   1.593       .  S
C532        C586   1.609       .  S
C533        H540   1.084       .  S
C533        C534   1.387       .  D
C534        C535   1.473       .  S
C535        C539   1.472       .  S
C535        C537   1.463       .  S
C535        H541   1.123       .  S
C536        H542   1.080       .  S
C536        C537   1.370       .  D
C537        C668   1.458       .  S
C538        H543   1.084       .  S
C538        C539   1.385       .  D
O544        C560   1.267       .  A
O544       Zn550   1.958       .  S
C545        O561   1.270       .  A
C545        O558   1.271       .  A
O546        C559   1.295       .  A
O546       Cd553   2.177       .  S
O547        C565   1.245       .  A
O547       Cd556   1.946       .  S
O548        C562   1.269       .  A
O548       Cd552   2.031       .  S
O549        C560   1.270   1_554  A
O549       Cd552   2.024       .  S
Zn550       O561   1.961       .  S
Zn550       O563   1.855       .  S
Zn550       O555   1.919       .  S
O551        C562   1.274       .  A
O551       Cd556   2.053       .  S
Cd552       O554   1.948       .  S
Cd552       O555   1.979   1_554  S
Cd553       O557   2.162       .  S
Cd553       O566   2.161       .  S
Cd553       O555   1.911       .  S
O554        C564   1.244       .  A
O555       Cd556   1.981   1_556  S
Cd556       O558   2.039   1_554  S
O557        C564   1.297   1_556  A
C559        O563   1.241       .  A
C562        C572   1.454       .  S
C565        O566   1.297   1_554  A
C567        C568   1.584       .  S
C567        C573   1.565       .  S
C567        C571   1.592       .  S
C567        C581   1.631       .  S
C568        H575   1.084       .  S
C568        C569   1.403       .  D
C569        C570   1.474       .  S
C570        C574   1.477       .  S
C570        C572   1.463       .  S
C570        H576   1.117       .  S
C571        H577   1.079       .  S
C571        C572   1.373       .  D
C573        H578   1.085       .  S
C573        C574   1.383       .  D
C579        C580   1.540       .  S
C579        C585   1.529       .  S
C579        C583   1.539       .  S
C579        C813   1.633       .  S
C580        H587   1.071       .  S
C580        C581   1.380       .  D
C581        C582   1.620       .  S
C582        C586   1.612       .  S
C582        C584   1.623       .  S
C582        H588   1.109       .  S
C583        H589   1.073       .  S
C583        C584   1.374       .  D
C584        C591   1.624       .  S
C585        H590   1.074       .  S
C585        C586   1.374       .  D
C591        C592   1.573       .  S
C591        C597   1.604       .  S
C591        C595   1.570       .  S
C592        H599   1.084       .  S
C592        C593   1.386       .  D
C593        C594   1.475       .  S
C594        C598   1.464       .  S
C594        C596   1.474       .  S
C594        H600   1.123       .  S
C595        H601   1.084       .  S
C595        C596   1.386       .  D
C597        H602   1.080       .  S
C597        C598   1.381       .  D
C598        C621   1.476       .  S
O603        C619   1.265       .  A
O603       Zn609   1.956       .  S
C604        O620   1.268       .  A
C604        O617   1.273       .  A
O605        C618   1.295       .  A
O605       Cd612   2.181       .  S
O606        C624   1.246   1_545  A
O606       Cd615   1.941       .  S
O607        C621   1.277       .  A
O607       Cd611   2.084       .  S
O608        C619   1.277   1_545  A
O608       Cd611   2.054       .  S
Zn609       O620   1.954       .  S
Zn609       O622   1.849       .  S
Zn609       O614   1.924       .  S
O610        C621   1.275       .  A
O610       Cd615   2.070       .  S
Cd611       O613   1.957       .  S
Cd611       O614   1.992   1_545  S
Cd612       O616   2.154       .  S
Cd612       O625   2.169       .  S
Cd612       O614   1.924       .  S
O613        C623   1.246       .  A
O614       Cd615   1.974   1_565  S
Cd615       O617   2.041   1_545  S
O616        C623   1.297   1_565  A
C618        O622   1.240       .  A
C623        C631   1.478       .  S
C624        O625   1.296       .  A
C626        C627   1.578       .  S
C626        C632   1.594   1_545  S
C626        C630   1.573       .  S
C626        C827   1.654       .  S
C627        H634   1.085       .  S
C627        C628   1.404       .  D
C628        C629   1.474   1_545  S
C628        C782   1.481       .  S
C629        C633   1.466       .  S
C629        C631   1.480   1_565  S
C629        H635   1.110       .  S
C630        H636   1.085       .  S
C630        C631   1.396       .  D
C632        H637   1.080       .  S
C632        C633   1.378       .  D
C638        C639   1.580       .  S
C638        C644   1.575       .  S
C638        C642   1.587   1_455  S
C639        H646   1.085       .  S
C639        C640   1.404       .  D
C640        C641   1.483       .  S
C640        C811   1.485       .  S
C641        C645   1.485       .  S
C641        C643   1.470   1_455  S
C641        H647   1.105   1_455  S
C642        H648   1.078       .  S
C642        C643   1.382       .  D
C644        H649   1.085       .  S
C644        C645   1.402       .  D
C645        C671   1.479       .  S
O650        C666   1.270       .  A
O650       Zn656   1.961       .  S
C651        O667   1.270       .  A
C651        O664   1.271   1_655  A
O652        C665   1.296       .  A
O652       Cd659   2.178       .  S
O653        C671   1.245       .  A
O653       Cd662   1.954       .  S
O654        C668   1.270       .  A
O654       Cd658   2.047       .  S
O655        C666   1.270   1_455  A
O655       Cd658   2.039       .  S
Zn656       O667   1.964       .  S
Zn656       O669   1.867       .  S
Zn656       O661   1.918   1_655  S
O657        C668   1.275       .  A
O657       Cd662   2.048       .  S
Cd658       O660   1.923       .  S
Cd658       O661   1.965       .  S
Cd659       O663   2.163       .  S
Cd659       O672   2.162       .  S
Cd659       O661   1.920   1_655  S
O660        C670   1.245       .  A
O661       Cd662   1.984       .  S
Cd662       O664   2.036       .  S
O663        C670   1.295   1_655  A
C665        O669   1.242       .  A
C670        C675   1.473       .  S
C671        O672   1.297   1_455  A
C673        C674   1.583       .  S
C673        C679   1.575       .  S
C673        C677   1.585   1_455  S
C674        H681   1.078       .  S
C674        C675   1.382       .  D
C675        C676   1.469   1_455  S
C676        C680   1.483   1_655  S
C676        C678   1.483       .  S
C676        H682   1.106       .  S
C677        H683   1.084       .  S
C677        C678   1.407       .  D
C679        H684   1.085       .  S
C679        C680   1.403       .  D
C680        C805   1.478       .  S
C685        C686   1.578       .  S
C685        C691   1.576       .  S
C685        C689   1.590   1_565  S
C686        H693   1.082       .  S
C686        C687   1.369       .  D
C687        C688   1.461   1_565  S
C687        C713   1.430       .  S
C688        C692   1.465   1_546  S
C688        C690   1.470       .  S
C688        H694   1.123   1_556  S
C689        H695   1.082       .  S
C689        C690   1.384       .  D
C690        C760   1.459       .  S
C691        H696   1.082   1_556  S
C691        C692   1.370   1_556  D
C692        C783   1.432       .  S
O697        C713   1.269   1_554  A
O697       Zn703   1.940       .  S
C698        C725   1.451   1_455  S
C698        O714   1.263       .  A
C698        O711   1.278   1_465  A
O699        C712   1.298       .  A
O699       Cd706   2.167   1_455  S
O700        C718   1.245   1_545  A
O700       Cd709   1.956       .  S
O701        C715   1.271   1_455  A
O701       Cd705   2.040       .  S
O702        C713   1.268   1_545  A
O702       Cd705   2.015       .  S
Zn703       O714   1.979       .  S
Zn703       O716   1.848       .  S
Zn703       O708   1.929   1_554  S
O704        C715   1.273   1_554  A
O704       Cd709   2.056       .  S
Cd705       O707   1.939       .  S
Cd705       O708   1.965   1_545  S
Cd706       O710   2.204       .  S
Cd706       O719   2.198       .  S
Cd706       O708   1.911   1_655  S
O707        C717   1.244       .  A
O708       Cd709   1.969   1_466  S
Cd709       O711   2.036       .  S
O710        C717   1.300   1_665  A
C712        O716   1.240   1_556  A
C715        C734   1.451       .  S
C718        O719   1.304   1_554  A
C720        C721   1.571       .  S
C720        C726   1.587   1_655  S
C720        C724   1.585       .  S
C721        H728   1.082   1_565  S
C721        C722   1.367   1_565  D
C722        C723   1.463   1_645  S
C722        C806   1.425       .  S
C723        C727   1.468       .  S
C723        C725   1.468   1_455  S
C723        H729   1.123   1_565  S
C724        H730   1.082       .  S
C724        C725   1.378       .  D
C726        H731   1.082       .  S
C726        C727   1.380       .  D
C727        C785   1.452       .  S
C732        C733   1.591       .  S
C732        C738   1.570   1_655  S
C732        C736   1.583   1_556  S
C733        H740   1.082       .  S
C733        C734   1.379       .  D
C734        C735   1.464   1_656  S
C735        C739   1.463   1_554  S
C735        C737   1.469   1_455  S
C735        H741   1.123       .  S
C736        H742   1.081       .  S
C736        C737   1.377       .  D
C737        C808   1.447       .  S
C738        H743   1.081       .  S
C738        C739   1.367       .  D
C739        C745   1.422       .  S
O744        C760   1.270       .  A
O744       Zn750   2.010       .  S
C745        O761   1.275       .  A
C745        O758   1.258   1_556  A
O746        C759   1.297       .  A
O746       Cd753   2.164       .  S
O747        C765   1.239       .  A
O747       Cd756   1.916       .  S
O748        C762   1.275       .  A
O748       Cd752   2.044       .  S
O749        C760   1.277   1_554  A
O749       Cd752   2.047       .  S
Zn750       O761   1.961       .  S
Zn750       O763   1.883       .  S
Zn750       O755   1.922       .  S
O751        C762   1.262       .  A
O751       Cd756   1.995       .  S
Cd752       O754   1.967       .  S
Cd752       O755   1.966   1_554  S
Cd753       O757   2.178       .  S
Cd753       O766   2.160       .  S
Cd753       O755   1.897       .  S
O754        C764   1.245       .  A
O755       Cd756   1.978   1_556  S
Cd756       O758   1.969       .  S
O757        C764   1.300   1_556  A
C759        O763   1.245       .  A
C762        C820   1.434       .  S
C765        O766   1.296   1_554  A
O767        C783   1.261   1_545  A
O767       Zn773   1.933       .  S
C768        C818   1.427       .  S
C768        O784   1.262       .  A
C768        O781   1.270       .  A
O769        C782   1.301   1_565  A
O769       Cd776   2.181       .  S
O770        C788   1.243       .  A
O770       Cd779   1.937       .  S
O771        C785   1.274       .  A
O771       Cd775   2.048       .  S
O772        C783   1.275       .  A
O772       Cd775   2.029       .  S
Zn773       O784   1.934       .  S
Zn773       O786   1.846       .  S
Zn773       O778   1.935   1_545  S
O774        C785   1.269   1_545  A
O774       Cd779   2.048       .  S
Cd775       O777   1.963       .  S
Cd775       O778   1.964       .  S
Cd776       O780   2.202       .  S
Cd776       O789   2.167       .  S
Cd776       O778   1.906       .  S
O777        C787   1.247       .  A
O778       Cd779   1.975   1_565  S
Cd779       O781   2.001       .  S
O780        C787   1.301       .  A
C782        O786   1.238       .  A
C788        O789   1.297   1_545  A
O790        C806   1.272   1_455  A
O790       Zn796   1.962       .  S
C791        C815   1.454       .  S
C791        O807   1.271       .  A
C791        O804   1.273       .  A
O792        C805   1.297   1_655  A
O792       Cd799   2.160       .  S
O793        C811   1.245       .  A
O793       Cd802   1.963       .  S
O794        C808   1.261       .  A
O794       Cd798   2.018       .  S
O795        C806   1.263       .  A
O795       Cd798   1.985       .  S
Zn796       O807   2.000       .  S
Zn796       O809   1.876       .  S
Zn796       O801   1.931       .  S
O797        C808   1.279   1_455  A
O797       Cd802   2.053       .  S
Cd798       O800   1.915       .  S
Cd798       O801   1.967   1_655  S
Cd799       O803   2.182       .  S
Cd799       O812   2.166   1_655  S
Cd799       O801   1.906   1_655  S
O800        C810   1.241       .  A
O801       Cd802   1.968       .  S
Cd802       O804   2.042       .  S
O803        C810   1.296       .  A
C805        O809   1.243       .  A
C811        O812   1.298       .  A
C813        C814   1.588       .  S
C813        C819   1.576       .  S
C813        C817   1.573       .  S
C814        H821   1.083       .  S
C814        C815   1.380       .  D
C815        C816   1.466       .  S
C816        C820   1.465       .  S
C816        C818   1.462       .  S
C816        H822   1.125       .  S
C817        H823   1.082       .  S
C817        C818   1.369       .  D
C819        H824   1.083       .  S
C819        C820   1.372       .  D
C825        C826   1.552       .  S
C825        C831   1.541       .  S
C825        C829   1.551       .  S
C826        H833   1.073       .  S
C826        C827   1.386       .  D
C827        C828   1.631       .  S
C828        C832   1.643       .  S
C828        C830   1.639       .  S
C828        H834   1.109       .  S
C829        H835   1.068       .  S
C829        C830   1.390       .  D
C831        H836   1.073       .  S
C831        C832   1.385       .  D
C837        C838   1.549       .  S
C837        C843   1.542       .  S
C837        C841   1.554       .  S
C838        H845   1.069       .  S
C838        C839   1.384       .  D
C839        C840   1.636       .  S
C840        C844   1.642       .  S
C840        C842   1.646       .  S
C840        H846   1.109       .  S
C841        H847   1.067       .  S
C841        C842   1.387       .  D
C843        H848   1.066       .  S
C843        C844   1.385       .  D
