geometry optimzed in LAMMPS
_audit_creation_date              2020-12-01 
_audit_creation_method            'lammps2cif' 
_symmetry_space_group_name_H-M    'P1' 
_symmetry_Int_Tables_number       1 
_symmetry_cell_setting            triclinic 
loop_ 
_symmetry_equiv_pos_as_xyz 
  x,y,z 
_cell_length_a                    41.10060975 
_cell_length_b                    41.03616760030206 
_cell_length_c                    58.0670539882481 
_cell_angle_alpha                 90.09236274290562 
_cell_angle_beta                  89.84608629768897 
_cell_angle_gamma                 119.96524593515633 
loop_ 
_atom_site_label 
_atom_site_type_symbol 
_atom_site_fract_x 
_atom_site_fract_y 
_atom_site_fract_z 
_atom_site_charge 
O1          O  0.86091490  0.07129511  0.37752761    -0.84700
O2          O  0.81179938  0.09732453  0.37177580    -0.81800
C3          C  0.79205692  0.11174624  0.37731608     0.98700
O4          O  0.80484395  0.13965872  0.39096150    -0.81800
O5          O  0.80352913  0.10962820  0.43393826    -0.84400
C6          C  0.81253172  0.09457912  0.44975114     1.03300
O7          O  0.84530440  0.09941908  0.45047067    -0.77200
O8          O  0.84337417  0.05582120  0.41341947    -0.77400
C9          C  0.84605513  0.04641842  0.39310991     1.03200
O10         O  0.92300669  0.14797322  0.37693549    -0.84700
O11         O  0.87326795  0.17334772  0.36680457    -0.81800
C12         C  0.88527333  0.20277378  0.37896134     0.98800
O13         O  0.88071934  0.20034642  0.40049069    -0.81800
O14         O  0.87746924  0.17420000  0.44422135    -0.84400
C15         C  0.90972420  0.17761879  0.44680400     1.03200
O16         O  0.91807658  0.15605054  0.43611266    -0.77200
O17         O  0.92015103  0.10926937  0.40356433    -0.77400
C18         C  0.93880182  0.13361541  0.38842938     1.03200
Cr19       Cr  0.86694700  0.12296721  0.37543574     1.93700
Cr20       Cr  0.84298530  0.15400601  0.41653381     1.93200
Cr21       Cr  0.88026532  0.10666812  0.42449929     1.39100
O22         O  0.86315606  0.12786528  0.40543513    -1.22500
O23         O  0.13248944  0.20158404  0.64486456    -0.84700
O24         O  0.18484339  0.27575348  0.64770583    -0.81800
C25         C  0.20626249  0.30845775  0.64028656     0.98700
O26         O  0.19378427  0.32404553  0.62696250    -0.81800
O27         O  0.18584557  0.28984559  0.58492112    -0.84400
C28         C  0.17228167  0.26504118  0.56944315     1.03300
O29         O  0.13845416  0.23911660  0.57095112    -0.77200
O30         O  0.14275401  0.19972342  0.60795463    -0.77400
C31         C  0.14349221  0.18926310  0.62826670     1.03200
O32         O  0.07367661  0.22134735  0.64900758    -0.84700
O33         O  0.12751107  0.29585377  0.65523455    -0.81800
C34         C  0.11779433  0.31533672  0.64321627     0.98800
O35         O  0.12063671  0.31596067  0.62160400    -0.81800
O36         O  0.11404011  0.28654179  0.57856193    -0.84400
C37         C  0.08041503  0.25950043  0.57731313     1.03200
O38         O  0.07004364  0.23016659  0.58911372    -0.77200
O39         O  0.06967994  0.18199038  0.62234216    -0.77400
C40         C  0.05560417  0.18971835  0.63937458     1.03200
Cr41       Cr  0.12964554  0.24933116  0.64696267     1.93700
Cr42       Cr  0.15196832  0.30076848  0.60405153     1.93200
Cr43       Cr  0.10689277  0.21574369  0.59895157     1.39100
O44         O  0.12949867  0.25553254  0.61678333    -1.22500
O45         O  0.07153930  0.84410728  0.64159533    -0.84700
O46         O  0.12653182  0.82420764  0.64672030    -0.81800
C47         C  0.11452996  0.79590448  0.63346621     0.98700
O48         O  0.11819764  0.80070173  0.61196428    -0.81800
O49         O  0.12209611  0.83231205  0.56941607    -0.84400
C50         C  0.09007910  0.82849584  0.56550052     1.03300
O51         O  0.07719335  0.84446915  0.57800766    -0.77200
O52         O  0.06742630  0.87992727  0.61492124    -0.77400
C53         C  0.05285937  0.85631875  0.63113597     1.03200
O54         O  0.12679605  0.92177426  0.64289521    -0.84700
O55         O  0.18298720  0.90359442  0.64328986    -0.81800
C56         C  0.20427189  0.89162507  0.63647737     0.98800
O57         O  0.19154548  0.86295615  0.62357557    -0.81800
O58         O  0.19171529  0.89743826  0.58298463    -0.84400
C59         C  0.18232105  0.91538655  0.56953786     1.03200
O60         O  0.14877398  0.90847807  0.56868138    -0.77200
O61         O  0.14256573  0.94166498  0.60749987    -0.77400
C62         C  0.13921364  0.94801513  0.62826073     1.03200
Cr63       Cr  0.12741773  0.87312534  0.64137560     1.93700
Cr64       Cr  0.15401552  0.84976906  0.59800184     1.93200
Cr65       Cr  0.11040840  0.89201658  0.59364157     1.39100
O66         O  0.13016028  0.87123301  0.61094791    -1.22500
O67         O  0.19595281  0.13237585  0.36451021    -0.84700
O68         O  0.27216704  0.18322669  0.36190950    -0.81800
C69         C  0.30559303  0.20362118  0.36867460     0.98700
O70         O  0.31981975  0.19021022  0.38242118    -0.81800
O71         O  0.28810341  0.19189929  0.42382298    -0.84400
C72         C  0.26282726  0.18363116  0.43871450     1.03300
O73         O  0.23352455  0.15165662  0.43878568    -0.77200
O74         O  0.19404606  0.14888579  0.40006349    -0.77400
C75         C  0.18377563  0.14629836  0.37942035     1.03200
O76         O  0.21263617  0.07202782  0.36595041    -0.84700
O77         O  0.28771872  0.12140405  0.35870295    -0.81800
C78         C  0.30450080  0.10992353  0.37187880     0.98800
O79         O  0.30499316  0.11504508  0.39332819    -0.81800
O80         O  0.27856240  0.11961994  0.43627868    -0.84400
C81         C  0.24885980  0.08897414  0.44089187     1.03200
O82         O  0.21968971  0.07811957  0.42900730    -0.77200
O83         O  0.17451323  0.07121244  0.39280031    -0.77400
C84         C  0.18236136  0.05469909  0.37713633     1.03200
Cr85       Cr  0.24281916  0.12772950  0.36513550     1.93700
Cr86       Cr  0.29427720  0.15239801  0.40787768     1.93200
Cr87       Cr  0.20859389  0.11392538  0.41358409     1.39100
O88         O  0.24860594  0.13108380  0.39556341    -1.22500
O89         O  0.93066519  0.78309267  0.36672974    -0.84700
O90         O  0.88031102  0.70849385  0.35852004    -0.81800
C91         C  0.88712283  0.68663678  0.37042966     0.98700
O92         O  0.88011619  0.68250401  0.39168760    -0.81800
O93         O  0.88798624  0.71082349  0.43482822    -0.84400
C94         C  0.92215358  0.73710433  0.43555758     1.03300
O95         O  0.93263736  0.76731780  0.42460926    -0.77200
O96         O  0.93263367  0.81979537  0.39436576    -0.77400
C97         C  0.94734285  0.81431975  0.37688913     1.03200
O98         O  0.86887029  0.79897456  0.37161963    -0.84700
O99         O  0.81948300  0.72440261  0.36479240    -0.81800
C100        C  0.79722881  0.69138854  0.37148987     0.98800
O101        O  0.80759884  0.67588271  0.38631616    -0.81800
O102        O  0.81621823  0.70985151  0.42886404    -0.84400
C103        C  0.83056179  0.73331878  0.44500751     1.03200
O104        O  0.86506436  0.75715020  0.44441278    -0.77200
O105        O  0.85977487  0.79908175  0.40904753    -0.77400
C106        C  0.85864192  0.81059439  0.38906526     1.03200
Cr107      Cr  0.87461906  0.75283373  0.36768317     1.93700
Cr108      Cr  0.84956061  0.69824446  0.40949052     1.93200
Cr109      Cr  0.89581765  0.78274199  0.41662494     1.39100
O110        O  0.87316321  0.74426070  0.39764597    -1.22500
O111        O  0.80203906  0.93298440  0.64899354    -0.84700
O112        O  0.72615530  0.90294419  0.65475230    -0.81800
C113        C  0.69316537  0.89049303  0.64743810     0.98700
O114        O  0.68004825  0.86628933  0.63137513    -0.81800
O115        O  0.71092574  0.89828265  0.58948564    -0.84400
C116        C  0.73558221  0.91394031  0.57407052     1.03300
O117        O  0.76474080  0.91111398  0.57463435    -0.77200
O118        O  0.80202593  0.95152505  0.61361043    -0.77400
C119        C  0.81258331  0.95924790  0.63425502     1.03200
O120        O  0.79076589  0.85710563  0.64660716    -0.84700
O121        O  0.71525884  0.82849230  0.65575767    -0.81800
C122        C  0.69746519  0.80077473  0.64245288     0.98800
O123        O  0.69540437  0.80594191  0.62125508    -0.81800
O124        O  0.72273217  0.83507054  0.57879681    -0.84400
C125        C  0.75300100  0.83435590  0.57555168     1.03200
O126        O  0.78204143  0.85505395  0.58713307    -0.77200
O127        O  0.82764262  0.89965194  0.62201878    -0.77400
C128        C  0.82216879  0.87459717  0.63658080     1.03200
Cr129      Cr  0.75792205  0.88016190  0.64913118     1.93700
Cr130      Cr  0.70572008  0.85335114  0.60633690     1.93200
Cr131      Cr  0.79082544  0.90248335  0.60082336     1.39100
O132        O  0.75108910  0.87860207  0.61884513    -1.22500
O133        O  0.48703193  0.89518176  0.31366030    -0.84700
O134        O  0.50286267  0.96802504  0.31905796    -0.81800
C135        C  0.53227828  0.98837538  0.30730852     0.98700
O136        O  0.53050527  0.98900948  0.28561156    -0.81800
O137        O  0.51050222  0.95954661  0.24179576    -0.84400
C138        C  0.51940199  0.93409794  0.24010479     1.03300
O139        O  0.50360371  0.90562722  0.25301057    -0.77200
O140        O  0.45793819  0.85513093  0.28590570    -0.77400
C141        C  0.47958279  0.86556945  0.30298722     1.03200
O142        O  0.40704503  0.86960907  0.30787571    -0.84700
O143        O  0.42464767  0.94406548  0.31105271    -0.81800
C144        C  0.43591207  0.97732224  0.30445059     0.98800
O145        O  0.46269699  0.99289833  0.29010082    -0.81800
O146        O  0.43903802  0.95647858  0.24772603    -0.84400
C147        C  0.42951808  0.93099421  0.23269976     1.03200
O148        O  0.44047349  0.90744120  0.23462363    -0.77200
O149        O  0.39749553  0.86430565  0.27058411    -0.77400
C150        C  0.38526097  0.85421421  0.29076064     1.03200
Cr151      Cr  0.45588617  0.91968921  0.31052241     1.93700
Cr152      Cr  0.48405192  0.97106516  0.26742465     1.93200
Cr153      Cr  0.45092012  0.88633640  0.26253557     1.39100
O154        O  0.46349552  0.92583832  0.28030561    -1.22500
O155        O  0.20351769  0.74773208  0.03269339    -0.84700
O156        O  0.15119081  0.77001915  0.03028891    -0.81800
C157        C  0.12855838  0.77924449  0.03855809     0.98700
O158        O  0.13830667  0.80232847  0.05520695    -0.81800
O159        O  0.14723968  0.77236798  0.09600452    -0.84400
C160        C  0.16141571  0.76012819  0.11047417     1.03300
O161        O  0.19541276  0.76948619  0.10848077    -0.77200
O162        O  0.19076864  0.72945701  0.06885848    -0.77400
C163        C  0.19134269  0.72197893  0.04779856     1.03200
O164        O  0.26278052  0.82621166  0.03296972    -0.84700
O165        O  0.20868463  0.84702921  0.02801800    -0.81800
C166        C  0.21605184  0.87415781  0.04139701     0.98800
O167        O  0.21056303  0.86880912  0.06276449    -0.81800
O168        O  0.21842553  0.84197206  0.10415783    -0.84400
C169        C  0.25228504  0.84899182  0.10463108     1.03200
O170        O  0.26266375  0.83066239  0.09203639    -0.77200
O171        O  0.26451718  0.78617096  0.05673855    -0.77400
C172        C  0.27986486  0.81048045  0.04113118     1.03200
Cr173      Cr  0.20637354  0.79805056  0.03341689     1.93700
Cr174      Cr  0.18027504  0.81969955  0.07835102     1.93200
Cr175      Cr  0.22652540  0.78042505  0.08026189     1.39100
O176        O  0.20413382  0.79957228  0.06387394    -1.22500
O177        O  0.12947438  0.58607892  0.30829742    -0.84700
O178        O  0.05504304  0.56762653  0.31212631    -0.81800
C179        C  0.02175738  0.55670777  0.30586647     0.98700
O180        O  0.00521263  0.52881837  0.29246512    -0.81800
O181        O  0.03842391  0.56046921  0.25091864    -0.84400
C182        C  0.06334876  0.57407901  0.23547471     1.03300
O183        O  0.08874980  0.56530601  0.23466557    -0.77200
O184        O  0.13297324  0.60302480  0.27209880    -0.77400
C185        C  0.14373029  0.61099457  0.29272302     1.03200
O186        O  0.10663579  0.50760793  0.30872255    -0.84700
O187        O  0.03245775  0.48852725  0.31613601    -0.81800
C188        C  0.01383126  0.45998694  0.30335570     0.98800
O189        O  0.01278969  0.46403719  0.28187185    -0.81800
O190        O  0.03853032  0.49181593  0.23840936    -0.84400
C191        C  0.06416968  0.48359879  0.23555899     1.03200
O192        O  0.09412609  0.50058061  0.24702119    -0.77200
O193        O  0.14463604  0.54112262  0.28081984    -0.77400
C194        C  0.13665706  0.51859672  0.29744223     1.03200
Cr195      Cr  0.08006866  0.53710725  0.30901887     1.93700
Cr196      Cr  0.02723136  0.51288473  0.26691225     1.93200
Cr197      Cr  0.11208457  0.55117399  0.26005847     1.39100
O198        O  0.07314566  0.53368820  0.27875491    -1.22500
O199        O  0.26221619  0.44889585  0.02920807    -0.84700
O200        O  0.20944146  0.37356393  0.02384312    -0.81800
C201        C  0.22085731  0.35624256  0.03665090     0.98700
O202        O  0.21778645  0.35683232  0.05825037    -0.81800
O203        O  0.21939162  0.38554102  0.10129624    -0.84400
C204        C  0.25274966  0.41285000  0.10337401     1.03300
O205        O  0.26392948  0.44128536  0.09061953    -0.77200
O206        O  0.26660979  0.48851049  0.05596864    -0.77400
C207        C  0.28020576  0.48059702  0.03879506     1.03200
O208        O  0.20380400  0.46849527  0.03158071    -0.84700
O209        O  0.15097370  0.39306734  0.02955846    -0.81800
C210        C  0.13061711  0.35964426  0.03624459     0.98800
O211        O  0.14371601  0.34516866  0.05002600    -0.81800
O212        O  0.14784915  0.38071528  0.09139107    -0.84400
C213        C  0.15948145  0.40730457  0.10575796     1.03200
O214        O  0.19366803  0.43251905  0.10576613    -0.77200
O215        O  0.19330116  0.47210300  0.06824608    -0.77400
C216        C  0.19454108  0.48299258  0.04784928     1.03200
Cr217      Cr  0.20639447  0.42035620  0.03080985     1.93700
Cr218      Cr  0.18377462  0.37029947  0.07421215     1.93200
Cr219      Cr  0.22781868  0.45548409  0.07880169     1.39100
O220        O  0.20605278  0.41530339  0.06115149    -1.22500
O221        O  0.52724731  0.79197725  0.03137895    -0.84700
O222        O  0.60225699  0.84217431  0.02607545    -0.81800
C223        C  0.63598860  0.86299163  0.03186616     0.98700
O224        O  0.65080574  0.85168186  0.04658065    -0.81800
O225        O  0.61969734  0.85578243  0.08847164    -0.84400
C226        C  0.59416917  0.84659294  0.10345642     1.03300
O227        O  0.56732910  0.81308789  0.10461583    -0.77200
O228        O  0.52429922  0.80737913  0.06717276    -0.77400
C229        C  0.51484233  0.80570415  0.04636275     1.03200
O230        O  0.54494922  0.73171371  0.03337453    -0.84700
O231        O  0.61884447  0.78105499  0.02476716    -0.81800
C232        C  0.63571076  0.77024294  0.03835388     0.98800
O233        O  0.63807505  0.77836756  0.05949810    -0.81800
O234        O  0.61409598  0.78605094  0.10225115    -0.84400
C235        C  0.58714717  0.75316916  0.10573021     1.03200
O236        O  0.55729040  0.74039333  0.09424628    -0.77200
O237        O  0.50748144  0.73144234  0.06018875    -0.77400
C238        C  0.51512338  0.71443194  0.04489449     1.03200
Cr239      Cr  0.57398703  0.78731358  0.03120602     1.93700
Cr240      Cr  0.62725224  0.81631245  0.07312737     1.93200
Cr241      Cr  0.54214587  0.77451182  0.08010847     1.39100
O242        O  0.58118260  0.79302764  0.06140026    -1.22500
O243        O  0.39978142  0.52452496  0.31320118    -0.84700
O244        O  0.45013598  0.49980607  0.32050568    -0.81800
C245        C  0.44209539  0.47150231  0.30779858     0.98700
O246        O  0.44755829  0.47551690  0.28638873    -0.81800
O247        O  0.44283703  0.50033986  0.24369496    -0.84400
C248        C  0.40928927  0.49408648  0.24203672     1.03300
O249        O  0.39890103  0.51297302  0.25398553    -0.77200
O250        O  0.39810230  0.56158444  0.28700784    -0.77400
C251        C  0.38273441  0.53901937  0.30345998     1.03200
O252        O  0.46148249  0.60273241  0.31092417    -0.84700
O253        O  0.51097361  0.57686274  0.31604211    -0.81800
C254        C  0.53235538  0.56538898  0.30870297     0.98800
O255        O  0.52110190  0.53979657  0.29355420    -0.81800
O256        O  0.51518823  0.56863179  0.25218565    -0.84400
C257        C  0.50248859  0.58020955  0.23648203     1.03200
O258        O  0.46850843  0.57183351  0.23693886    -0.77200
O259        O  0.47198670  0.61547532  0.27394329    -0.77400
C260        C  0.47244050  0.62625398  0.29434064     1.03200
Cr261      Cr  0.45573445  0.55052361  0.31288361     1.93700
Cr262      Cr  0.48003559  0.52288218  0.26998649     1.93200
Cr263      Cr  0.43603160  0.56393739  0.26442271     1.39100
O264        O  0.45745999  0.54569290  0.28264298    -1.22500
O265        O  0.74082095  0.20309510  0.97557171    -0.84700
O266        O  0.76294613  0.15060413  0.97985272    -0.81800
C267        C  0.77417363  0.12890794  0.97268558     0.98700
O268        O  0.79981183  0.13969469  0.95762819    -0.81800
O269        O  0.77092595  0.14546171  0.91597824    -0.84400
C270        C  0.75886769  0.15838289  0.90060607     1.03300
O271        O  0.76761306  0.19251943  0.90127129    -0.77200
O272        O  0.72581813  0.19063796  0.93907854    -0.77400
C273        C  0.71630119  0.19104616  0.95969320     1.03200
O274        O  0.81958673  0.26203688  0.97688675    -0.84700
O275        O  0.83998682  0.20846937  0.98412758    -0.81800
C276        C  0.86830180  0.21677022  0.97157148     0.98800
O277        O  0.86496835  0.21191966  0.95007948    -0.81800
O278        O  0.83971624  0.21654416  0.90736401    -0.84400
C279        C  0.84665593  0.25026967  0.90568470     1.03200
O280        O  0.82822984  0.26137904  0.91752602    -0.77200
O281        O  0.78236104  0.26478255  0.95125221    -0.77400
C282        C  0.80608812  0.28003449  0.96714964     1.03200
Cr283      Cr  0.79122037  0.20587348  0.97681425     1.93700
Cr284      Cr  0.81711682  0.18008760  0.93377845     1.93200
Cr285      Cr  0.77740285  0.22561903  0.92866913     1.39100
O286        O  0.79535316  0.20365664  0.94655973    -1.22500
O287        O  0.87442200  0.46681326  0.70257142    -0.84700
O288        O  0.94926805  0.51313678  0.69688482    -0.81800
C289        C  0.98150632  0.53556807  0.70459565     0.98700
O290        O  0.99520354  0.52593718  0.72098691    -0.81800
O291        O  0.95953747  0.52156346  0.76232579    -0.84400
C292        C  0.93490426  0.50944543  0.77795417     1.03300
O293        O  0.90907948  0.47569274  0.77751698    -0.77200
O294        O  0.87274159  0.48161534  0.73882746    -0.77400
C295        C  0.86377747  0.48155272  0.71800765     1.03200
O296        O  0.88710805  0.40240067  0.70334757    -0.84700
O297        O  0.96221955  0.45031542  0.69534419    -0.81800
C298        C  0.98242618  0.44348888  0.70865415     0.98800
O299        O  0.98535294  0.45225715  0.72966143    -0.81800
O300        O  0.95375352  0.44840980  0.77132404    -0.84400
C301        C  0.92568969  0.41524545  0.77303027     1.03200
O302        O  0.89637647  0.40560488  0.76136793    -0.77200
O303        O  0.84896031  0.40613455  0.72771769    -0.77400
C304        C  0.85527909  0.38780871  0.71277167     1.03200
Cr305      Cr  0.91886848  0.45845955  0.70182706     1.93700
Cr306      Cr  0.97012482  0.48550246  0.74502343     1.93200
Cr307      Cr  0.88501627  0.44380098  0.74992079     1.39100
O308        O  0.92515752  0.46281685  0.73204458    -1.22500
O309        O  0.79435024  0.52995436  0.98081528    -0.84700
O310        O  0.84280078  0.60558957  0.98392961    -0.81800
C311        C  0.86316021  0.63876090  0.97678855     0.98700
O312        O  0.85045047  0.65261067  0.96222207    -0.81800
O313        O  0.84828307  0.61869554  0.92063541    -0.84400
C314        C  0.83784237  0.59353988  0.90539761     1.03300
O315        O  0.80502811  0.56552386  0.90606529    -0.77200
O316        O  0.80848727  0.52812210  0.94464219    -0.77400
C317        C  0.80878964  0.51905314  0.96537408     1.03200
O318        O  0.73178634  0.54515204  0.98087934    -0.84700
O319        O  0.78093293  0.62017964  0.98803079    -0.81800
C320        C  0.77040238  0.63816024  0.97521326     0.98800
O321        O  0.77536892  0.63919824  0.95370549    -0.81800
O322        O  0.77441245  0.60964444  0.91078918    -0.84400
C323        C  0.74226361  0.58049553  0.90806075     1.03200
O324        O  0.73294660  0.55165761  0.92025485    -0.77200
O325        O  0.73218283  0.50602423  0.95556248    -0.77400
C326        C  0.71523407  0.51366836  0.97095727     1.03200
Cr327      Cr  0.78763246  0.57575765  0.98108962     1.93700
Cr328      Cr  0.81054955  0.62659551  0.93788484     1.93200
Cr329      Cr  0.77113678  0.54097773  0.93307628     1.39100
O330        O  0.78976257  0.58137421  0.95075229    -1.22500
O331        O  0.44232022  0.26791342  0.97652550    -0.84700
O332        O  0.36881517  0.21256178  0.98336455    -0.81800
C333        C  0.35219325  0.22436359  0.97035526     0.98700
O334        O  0.35134427  0.21954653  0.94884695    -0.81800
O335        O  0.37524568  0.21429282  0.90521653    -0.84400
C336        C  0.40082450  0.24784075  0.90181428     1.03300
O337        O  0.42961688  0.26214563  0.91429429    -0.77200
O338        O  0.48004215  0.27418202  0.94803527    -0.77400
C339        C  0.47137926  0.28807766  0.96470617     1.03200
O340        O  0.46602673  0.21258564  0.97604964    -0.84700
O341        O  0.39148600  0.15640652  0.97937426    -0.81800
C342        C  0.35752397  0.13529384  0.97399283     0.98800
O343        O  0.34179412  0.14710506  0.96029974    -0.81800
O344        O  0.37456114  0.14690200  0.91834170    -0.84400
C345        C  0.40064073  0.15802334  0.90357973     1.03200
O346        O  0.42618530  0.19219704  0.90277280    -0.77200
O347        O  0.47049353  0.20169478  0.93959098    -0.77400
C348        C  0.48136481  0.20394532  0.96006177     1.03200
Cr349      Cr  0.41650465  0.21189282  0.97652304     1.93700
Cr350      Cr  0.36404798  0.18376269  0.93425123     1.93200
Cr351      Cr  0.44858415  0.23088065  0.92757267     1.39100
O352        O  0.40986057  0.20863832  0.94618980    -1.22500
O353        O  0.59241907  0.13415642  0.69985873    -0.84700
O354        O  0.57264803  0.05993392  0.69836815    -0.81800
C355        C  0.56105620  0.02699260  0.70554396     0.98700
O356        O  0.53299363  0.01169218  0.71906132    -0.81800
O357        O  0.55990081  0.04677834  0.76093294    -0.84400
C358        C  0.57261490  0.07256748  0.77587188     1.03300
O359        O  0.56516677  0.09888682  0.77451203    -0.77200
O360        O  0.60659169  0.13867046  0.73650317    -0.77400
C361        C  0.61672889  0.14744199  0.71580721     1.03200
O362        O  0.51323183  0.11170288  0.69689234    -0.84700
O363        O  0.49461393  0.03790390  0.69147056    -0.81800
C364        C  0.46523115  0.02127349  0.70374836     0.98800
O365        O  0.46784583  0.02106919  0.72534951    -0.81800
O366        O  0.49126792  0.04971995  0.76845893    -0.84400
C367        C  0.48431393  0.07656394  0.76959203     1.03200
O368        O  0.50339444  0.10576572  0.75769756    -0.77200
O369        O  0.54723104  0.15240429  0.72338225    -0.77400
C370        C  0.52324566  0.14210620  0.70742355     1.03200
Cr371      Cr  0.54278182  0.08545367  0.69893354     1.93700
Cr372      Cr  0.51469384  0.03551984  0.74237262     1.93200
Cr373      Cr  0.55441066  0.12089451  0.74670068     1.39100
O374        O  0.53733787  0.08049958  0.72929520    -1.22500
O375        O  0.51635644  0.39910497  0.69049892    -0.84700
O376        O  0.50068531  0.45664996  0.68633554    -0.81800
C377        C  0.47205139  0.44460662  0.69912484     0.98700
O378        O  0.47571498  0.44637576  0.72070725    -0.81800
O379        O  0.50211530  0.44126173  0.76296790    -0.84400
C380        C  0.49509624  0.40750589  0.76415442     1.03300
O381        O  0.51217183  0.39635197  0.75118823    -0.77200
O382        O  0.55270575  0.39215344  0.71505550    -0.77400
C383        C  0.52801583  0.37892655  0.69944911     1.03200
O384        O  0.59640625  0.45378651  0.69135360    -0.84700
O385        O  0.57897519  0.51025052  0.69161612    -0.81800
C386        C  0.56806230  0.53197757  0.69929697     0.98800
O387        O  0.54083520  0.51978907  0.71337667    -0.81800
O388        O  0.56997619  0.51170540  0.75448949    -0.84400
C389        C  0.58432615  0.49852816  0.76816803     1.03200
O390        O  0.57626774  0.46459793  0.76654525    -0.77200
O391        O  0.61326262  0.46486984  0.72763569    -0.77400
C392        C  0.62150013  0.46510986  0.70677578     1.03200
Cr393      Cr  0.54781426  0.45496737  0.69218853     1.93700
Cr394      Cr  0.52365971  0.47817785  0.73673603     1.93200
Cr395      Cr  0.56225951  0.43120514  0.73890582     1.39100
O396        O  0.54465997  0.45502572  0.72262141    -1.22500
C397        C  0.50134108  0.20855897  0.67460169    -0.13700
C398        C  0.49659298  0.22805662  0.69302944     0.16700
C399        C  0.49402178  0.21452174  0.71561506     0.03000
C400        C  0.50010086  0.18444916  0.71965976    -0.12200
C401        C  0.50814323  0.16698225  0.70148688    -0.03300
C402        C  0.50647970  0.17768353  0.67864891     0.02200
C403        C  0.50126224  0.26585545  0.68924258     0.09000
N404        N  0.48902037  0.23338977  0.73483815     0.65400
H405        H  0.50061744  0.17604556  0.73728524     0.18300
N406        N  0.51288884  0.15953868  0.65959122     0.75900
H407        H  0.50306060  0.21860858  0.65713806     0.09800
C408        C  0.53682979  0.29597380  0.68305210     0.03500
C409        C  0.54323915  0.33256911  0.68396681    -0.05200
C410        C  0.51559623  0.34048835  0.69125932    -0.23600
C411        C  0.47901075  0.31037554  0.69542463     0.12800
C412        C  0.47219494  0.27323464  0.69459517    -0.12700
N413        N  0.56762051  0.28997205  0.67844204     0.64400
H414        H  0.57246021  0.35652909  0.68039743     0.12300
N415        N  0.44944992  0.31727450  0.70194575     0.61100
H416        H  0.44436912  0.24999286  0.69923547     0.08400
O417        O  0.54426994  0.17547484  0.64946276    -0.40400
O418        O  0.48540081  0.13149044  0.65033655    -0.39600
O419        O  0.45753843  0.21898729  0.74481141    -0.39600
O420        O  0.51730238  0.26044596  0.74420754    -0.37300
O421        O  0.43012859  0.32130596  0.68655075    -0.38200
O422        O  0.43875516  0.31319079  0.72265892    -0.34300
O423        O  0.58065011  0.29437476  0.65827114    -0.35700
O424        O  0.58562896  0.28667509  0.69498195    -0.40000
C425        C  0.43171998  0.36848863  0.81681641    -0.13700
C426        C  0.43168230  0.33458723  0.81993481     0.16700
C427        C  0.44851244  0.32292577  0.80313308     0.03000
C428        C  0.46651498  0.34598767  0.78424986    -0.12200
C429        C  0.46942845  0.38148709  0.78202055    -0.03300
C430        C  0.45073652  0.39218861  0.79824287     0.02200
C431        C  0.41719093  0.31334897  0.84168219     0.09000
N432        N  0.45064666  0.28944027  0.80604903     0.65400
H433        H  0.48037353  0.33687899  0.77207649     0.18300
N434        N  0.45207473  0.42758982  0.79679171     0.75900
H435        H  0.41824273  0.37735926  0.82941749     0.09800
C436        C  0.43207409  0.33073137  0.86303056     0.03500
C437        C  0.42257011  0.30898753  0.88295902    -0.05200
C438        C  0.39966544  0.26980177  0.88203337    -0.23600
C439        C  0.38187982  0.25279355  0.86107405     0.12800
C440        C  0.39067348  0.27475372  0.84109252    -0.12700
N441        N  0.45997525  0.36966234  0.86448672     0.64400
H442        H  0.43538899  0.32239829  0.89893717     0.12300
N443        N  0.35710350  0.21311309  0.85936764     0.61100
H444        H  0.37827124  0.26132048  0.82488240     0.08400
O445        O  0.42568241  0.42950803  0.78704674    -0.40400
O446        O  0.47544665  0.45485658  0.80885577    -0.39600
O447        O  0.43248448  0.26187009  0.79272698    -0.39600
O448        O  0.47572232  0.29006001  0.81884307    -0.37300
O449        O  0.32214305  0.20000887  0.86114737    -0.38200
O450        O  0.36934619  0.19233931  0.85193248    -0.34300
O451        O  0.45204660  0.39245242  0.87406473    -0.35700
O452        O  0.49385160  0.37975009  0.86027128    -0.40000
C453        C  0.42138800  0.05510377  0.82237536    -0.13700
C454        C  0.41790905  0.08738259  0.82310826     0.16700
C455        C  0.43039493  0.11214195  0.80421592     0.03000
C456        C  0.44916524  0.10621162  0.78598192    -0.12200
C457        C  0.45624081  0.07597123  0.78621390    -0.03300
C458        C  0.43982222  0.04883567  0.80395431     0.02200
C459        C  0.40993522  0.09954520  0.84538143     0.09000
N460        N  0.42767886  0.14554376  0.80440636     0.65400
H461        H  0.46044226  0.12696385  0.77233934     0.18300
N462        N  0.44304959  0.01575036  0.80417973     0.75900
H463        H  0.41165333  0.03579665  0.83680904     0.09800
C464        C  0.37484799  0.09588507  0.85097013     0.03500
C465        C  0.37087153  0.11221720  0.87134480    -0.05200
C466        C  0.40169085  0.13252826  0.88600792    -0.23600
C467        C  0.43612917  0.13435036  0.88085377     0.12800
C468        C  0.43993886  0.11799777  0.86069568    -0.12700
N469        N  0.34361505  0.07709477  0.83575137     0.64400
H470        H  0.34446167  0.11114485  0.87490726     0.12300
N471        N  0.46780318  0.15355752  0.89577164     0.61100
H472        H  0.46692261  0.12066655  0.85660122     0.08400
O473        O  0.41824486  0.98633446  0.79438071    -0.40400
O474        O  0.46578326  0.01363505  0.81779660    -0.39600
O475        O  0.45332295  0.17500849  0.81370525    -0.39600
O476        O  0.40407973  0.14765504  0.79157073    -0.37300
O477        O  0.46729732  0.14009766  0.91537679    -0.38200
O478        O  0.49774034  0.18131767  0.88840883    -0.34300
O479        O  0.31871265  0.04357543  0.83992279    -0.35700
O480        O  0.33695344  0.09601344  0.82136024    -0.40000
C481        C  0.61095300  0.46470191  0.98607860    -0.13700
C482        C  0.60138873  0.42686775  0.98428389     0.16700
C483        C  0.62980966  0.41795899  0.98001522     0.03000
C484        C  0.66684991  0.44670392  0.97660383    -0.12200
C485        C  0.67646324  0.48467993  0.97744513    -0.03300
C486        C  0.64826246  0.49367009  0.98277532     0.02200
C487        C  0.56170242  0.39709057  0.98160240     0.09000
N488        N  0.62074259  0.37972550  0.97702144     0.65400
H489        H  0.68806243  0.43922653  0.97256112     0.18300
N490        N  0.65622957  0.53178048  0.98253388     0.75900
H491        H  0.58905518  0.47174902  0.98860199     0.09800
C492        C  0.54181653  0.37119560  0.99929053     0.03500
C493        C  0.51000164  0.33653161  0.99387074    -0.05200
C494        C  0.49777402  0.32758675  0.97098156    -0.23600
C495        C  0.51539894  0.35546021  0.95381391     0.12800
C496        C  0.54704053  0.38983312  0.95929190    -0.12700
N497        N  0.55453749  0.37918267  0.02257236     0.64400
H498        H  0.49635288  0.31573187  0.00730938     0.12300
N499        N  0.50202674  0.34927636  0.93062475     0.61100
H500        H  0.56195131  0.40983629  0.94563240     0.08400
O501        O  0.65464849  0.54709580  0.00103511    -0.40400
O502        O  0.65803957  0.54754494  0.96355102    -0.39600
O503        O  0.61611834  0.36595267  0.95704870    -0.39600
O504        O  0.61607988  0.35931308  0.99434358    -0.37300
O505        O  0.51313054  0.33328724  0.91664952    -0.38200
O506        O  0.48880511  0.36893691  0.92282655    -0.34300
O507        O  0.54903960  0.40208875  0.03410313    -0.35700
O508        O  0.56508899  0.35888353  0.03270077    -0.40000
C509        C  0.66272416  0.53703243  0.81200439    -0.13700
C510        C  0.65056899  0.55466097  0.82770363     0.16700
C511        C  0.61857368  0.55749668  0.82243426     0.03000
C512        C  0.59823338  0.54094170  0.80215661    -0.12200
C513        C  0.60940084  0.52152518  0.78707602    -0.03300
C514        C  0.64257011  0.52059312  0.79185653     0.02200
C515        C  0.66982029  0.56585426  0.85032444     0.09000
N516        N  0.60618200  0.57656056  0.83760707     0.65400
H517        H  0.57286947  0.54195366  0.79867016     0.18300
N518        N  0.65617786  0.50300586  0.77635499     0.75900
H519        H  0.68741505  0.53492954  0.81581261     0.09800
C520        C  0.65694232  0.54027582  0.86881629     0.03500
C521        C  0.67999322  0.54672944  0.88804498    -0.05200
C522        C  0.71632111  0.57849551  0.88930570    -0.23600
C523        C  0.72796914  0.60543457  0.87133864     0.12800
C524        C  0.70482950  0.59873993  0.85205648    -0.12700
N525        N  0.62171027  0.50606011  0.86742350     0.64400
H526        H  0.66997006  0.52571683  0.90155284     0.12300
N527        N  0.76414029  0.63855032  0.87156426     0.61100
H528        H  0.71512687  0.61838937  0.83779486     0.08400
O529        O  0.65091234  0.47066133  0.78089745    -0.40400
O530        O  0.67970829  0.52255919  0.76104777    -0.39600
O531        O  0.62271441  0.61202579  0.83735878    -0.39600
O532        O  0.57484871  0.55834259  0.84763733    -0.37300
O533        O  0.79120546  0.63857232  0.86123895    -0.38200
O534        O  0.76729930  0.66927604  0.87823717    -0.34300
O535        O  0.61961328  0.47766705  0.85753669    -0.35700
O536        O  0.59241723  0.50455736  0.87541291    -0.40000
C537        C  0.70545554  0.22394333  0.68641050    -0.13700
C538        C  0.73070075  0.23689915  0.70490808     0.16700
C539        C  0.71992058  0.21699479  0.72587463     0.03000
C540        C  0.68343600  0.18645194  0.72852474    -0.12200
C541        C  0.65687522  0.17529954  0.71065438    -0.03300
C542        C  0.66894032  0.19330866  0.68898852     0.02200
C543        C  0.76403699  0.27518708  0.70367786     0.09000
N544        N  0.74441480  0.22957778  0.74534402     0.65400
H545        H  0.67532730  0.17279002  0.74517534     0.18300
N546        N  0.64396375  0.18262277  0.66981541     0.75900
H547        H  0.71343378  0.23913299  0.67023436     0.09800
C548        C  0.80137023  0.28227007  0.70381855     0.03500
C549        C  0.83138504  0.31951642  0.70528709    -0.05200
C550        C  0.82456770  0.34975426  0.70676424    -0.23600
C551        C  0.78722782  0.34250620  0.70545253     0.12800
C552        C  0.75753841  0.30557187  0.70391870    -0.12700
N553        N  0.80921206  0.25211019  0.70249506     0.64400
H554        H  0.85989995  0.32467548  0.70624404     0.12300
N555        N  0.77896017  0.37246772  0.70579147     0.61100
H556        H  0.72900145  0.30049412  0.70361224     0.08400
O557        O  0.62723363  0.20066561  0.66556018    -0.40400
O558        O  0.64446560  0.16060343  0.65480889    -0.39600
O559        O  0.74606567  0.25552412  0.75786209    -0.39600
O560        O  0.75770633  0.20973211  0.75272416    -0.37300
O561        O  0.77687742  0.38678335  0.68703662    -0.38200
O562        O  0.76649882  0.37919957  0.72398633    -0.34300
O563        O  0.81158924  0.23985835  0.68298853    -0.35700
O564        O  0.82205474  0.24399183  0.71990987    -0.40000
C565        C  0.70881582  0.46086167  0.69383414    -0.13700
C566        C  0.73654279  0.49741808  0.69976110     0.16700
C567        C  0.72631212  0.52471931  0.70463723     0.03000
C568        C  0.68825851  0.51414234  0.70550953    -0.12200
C569        C  0.66047308  0.47690385  0.70101428    -0.03300
C570        C  0.67091983  0.45040544  0.69442579     0.02200
C571        C  0.77470023  0.50398739  0.70386334     0.09000
N572        N  0.75415386  0.56304483  0.70867654     0.65400
H573        H  0.68031134  0.53475146  0.71032270     0.18300
N574        N  0.64347366  0.41199217  0.69039318     0.75900
H575        H  0.71650000  0.43964032  0.69023497     0.09800
C576        C  0.78801800  0.50656455  0.72650870     0.03500
C577        C  0.81955128  0.50289475  0.73044091    -0.05200
C578        C  0.83724496  0.49494846  0.71226711    -0.23600
C579        C  0.82546950  0.49529388  0.68942607     0.12800
C580        C  0.79443212  0.49986945  0.68547394    -0.12700
N581        N  0.76710579  0.50787362  0.74588963     0.64400
H582        H  0.82797348  0.50289354  0.74810427     0.12300
N583        N  0.84315567  0.48886673  0.67011859     0.61100
H584        H  0.78415890  0.49770330  0.66804918     0.08400
O585        O  0.63055592  0.38974491  0.70728238    -0.40400
O586        O  0.63993960  0.39877046  0.67033494    -0.39600
O587        O  0.77004832  0.58432854  0.69168654    -0.39600
O588        O  0.75668096  0.57735050  0.72830183    -0.37300
O589        O  0.82799315  0.45673284  0.66090114    -0.38200
O590        O  0.86919874  0.51656774  0.65963827    -0.34300
O591        O  0.73795006  0.47824141  0.75222269    -0.35700
O592        O  0.78186065  0.53574166  0.75933826    -0.40000
C593        C  0.91787132  0.53857271  0.83647328    -0.13700
C594        C  0.91734838  0.57161620  0.83116423     0.16700
C595        C  0.92798372  0.58695643  0.80879618     0.03000
C596        C  0.93660358  0.56781400  0.79187679    -0.12200
C597        C  0.93475338  0.53350693  0.79691165    -0.03300
C598        C  0.92637213  0.51949575  0.81965707     0.02200
C599        C  0.90104773  0.58614808  0.84856245     0.09000
N600        N  0.92981840  0.62164898  0.80296016     0.65400
H601        H  0.94296374  0.57885489  0.77449542     0.12900
N602        N  0.92549848  0.48532816  0.82580517     0.75900
H603        H  0.90988628  0.52650379  0.85356116     0.09800
C604        C  0.86510103  0.58187157  0.84526022     0.03500
C605        C  0.84635318  0.58724309  0.86376480    -0.05200
C606        C  0.86240215  0.59649276  0.88580308    -0.23600
C607        C  0.89935371  0.60336800  0.88880270     0.12800
C608        C  0.91828807  0.59802504  0.87022867    -0.12700
N609        N  0.84551416  0.56821495  0.82395330     0.64400
H610        H  0.81796210  0.58184251  0.86120810     0.12300
N611        N  0.91644614  0.61185804  0.91103425     0.61100
H612        H  0.94564782  0.60091448  0.87309494     0.08400
O613        O  0.89434253  0.45546467  0.82817491    -0.40400
O614        O  0.95499693  0.48657588  0.83308687    -0.39600
O615        O  0.95724107  0.65214707  0.80992494    -0.39600
O616        O  0.90924491  0.62234221  0.78709693    -0.37300
O617        O  0.91122221  0.58536395  0.92432167    -0.38200
O618        O  0.94195045  0.64497494  0.91555770    -0.34300
O619        O  0.83108123  0.53376555  0.81907237    -0.35700
O620        O  0.83556275  0.58817709  0.81283949    -0.40000
C621        C  0.61341502  0.16018903  0.95223315    -0.13700
C622        C  0.60879933  0.18125756  0.96964008     0.16700
C623        C  0.63678886  0.19843976  0.98661678     0.03000
C624        C  0.67060732  0.19825622  0.98421348    -0.12200
C625        C  0.67730422  0.18178845  0.96485899    -0.03300
C626        C  0.64741927  0.16069551  0.94948153     0.02200
C627        C  0.57667214  0.18806781  0.96811081     0.09000
N628        N  0.63252985  0.21852495  0.00540970     0.65400
H629        H  0.69265029  0.21349675  0.99666247     0.18300
N630        N  0.65110155  0.14008716  0.93077087     0.75900
H631        H  0.59121313  0.14504604  0.93982550     0.09800
C632        C  0.57036960  0.20243877  0.94762438     0.03500
C633        C  0.53937857  0.20736012  0.94584426    -0.05200
C634        C  0.51426250  0.19910314  0.96427142    -0.23600
C635        C  0.52125744  0.18609418  0.98522212     0.12800
C636        C  0.55194683  0.17995675  0.98674039    -0.12700
N637        N  0.59571620  0.21300840  0.92852656     0.64400
H638        H  0.53537870  0.21845326  0.92984982     0.12300
N639        N  0.49755140  0.17842312  0.00492837     0.61100
H640        H  0.55646814  0.16881262  0.00253254     0.08400
O641        O  0.66115296  0.15551464  0.91126392    -0.40400
O642        O  0.63477541  0.10470480  0.93210931    -0.39600
O643        O  0.62524134  0.20402983  0.02524459    -0.39600
O644        O  0.64255788  0.25284103  0.00308388    -0.37300
O645        O  0.48408366  0.14687155  0.01473497    -0.38200
O646        O  0.49842228  0.20549995  0.01579853    -0.34300
O647        O  0.58507388  0.19443058  0.91002810    -0.35700
O648        O  0.62564978  0.24443637  0.92870332    -0.40000
C649        C  0.67979032  0.07953994  0.86616322    -0.13700
C650        C  0.68229682  0.09866858  0.84555477     0.16700
C651        C  0.71304957  0.13506374  0.84220559     0.03000
C652        C  0.73888502  0.15293660  0.85994166    -0.12200
C653        C  0.73513388  0.13510009  0.88120628    -0.03300
C654        C  0.70636667  0.09730166  0.88387056     0.02200
C655        C  0.65017244  0.08404543  0.82932075     0.09000
N656        N  0.71675084  0.15538698  0.82147302     0.65400
H657        H  0.76120945  0.18170348  0.85738142     0.18300
N658        N  0.70252754  0.07743560  0.90482851     0.75900
H659        H  0.65623284  0.05150183  0.86891479     0.09800
C660        C  0.65027761  0.06747044  0.80805551     0.03500
C661        C  0.62338599  0.06174689  0.79119308    -0.05200
C662        C  0.59652092  0.07282540  0.79512386    -0.23600
C663        C  0.59520119  0.08729377  0.81701489     0.12800
C664        C  0.62182300  0.09266946  0.83380514    -0.12700
N665        N  0.67818695  0.05741845  0.80311081     0.64400
H666        H  0.62472182  0.05037327  0.77459507     0.12300
N667        N  0.56716111  0.09700494  0.82244877     0.61100
H668        H  0.62145485  0.10539460  0.85010415     0.08400
O669        O  0.69027136  0.08512130  0.92274922    -0.40400
O670        O  0.71534958  0.05525064  0.90608895    -0.39600
O671        O  0.70175947  0.17567632  0.82012178    -0.39600
O672        O  0.74033320  0.15849882  0.80642259    -0.37300
O673        O  0.57529320  0.13097109  0.82153325    -0.38200
O674        O  0.53776390  0.07349799  0.83287845    -0.34300
O675        O  0.67142287  0.02448262  0.80741072    -0.35700
O676        O  0.70590792  0.07857224  0.79057131    -0.40000
C677        C  0.79708508  0.36397077  0.98389239    -0.13700
C678        C  0.83290619  0.39397276  0.97853090     0.16700
C679        C  0.86161258  0.38599448  0.97249147     0.03000
C680        C  0.85308011  0.34836728  0.97017632    -0.12200
C681        C  0.81656917  0.31860515  0.97422796    -0.03300
C682        C  0.78882428  0.32667138  0.98187296     0.02200
C683        C  0.83715498  0.43217337  0.97673197     0.09000
N684        N  0.89938104  0.41557745  0.96881902     0.65400
H685        H  0.87469023  0.34239094  0.96447897     0.18300
N686        N  0.75186532  0.29712100  0.98741122     0.75900
H687        H  0.77478594  0.36947182  0.98872709     0.09800
C688        C  0.84420313  0.45078981  0.95532290     0.03500
C689        C  0.83792274  0.48117086  0.95272794    -0.05200
C690        C  0.82334705  0.49298408  0.97083128    -0.23600
C691        C  0.81977921  0.47663897  0.99282717     0.12800
C692        C  0.82669390  0.44659188  0.99552984    -0.12700
N693        N  0.85348679  0.43666583  0.93532148     0.64400
H694        H  0.84174280  0.49359008  0.93578252     0.12300
N695        N  0.80702092  0.48845784  0.01232393     0.61100
H696        H  0.82145556  0.43279603  0.01212537     0.08400
O697        O  0.72521626  0.28931464  0.97367429    -0.40400
O698        O  0.74464267  0.28474836  0.00776333    -0.39600
O699        O  0.91837656  0.43502968  0.98575029    -0.39600
O700        O  0.91599604  0.41679636  0.95025163    -0.37300
O701        O  0.77262478  0.47084037  0.01759140    -0.38200
O702        O  0.83061138  0.51048497  0.02681756    -0.34300
O703        O  0.82879266  0.40641769  0.92621424    -0.35700
O704        O  0.88303134  0.45792988  0.92418840    -0.40000
C705        C  0.90524679  0.28754601  0.85121710    -0.13700
C706        C  0.91164637  0.32444122  0.85107032     0.16700
C707        C  0.90194973  0.33827570  0.87060865     0.03000
C708        C  0.88409184  0.31437215  0.88924056    -0.12200
C709        C  0.87393893  0.27621364  0.88841653    -0.03300
C710        C  0.88632284  0.26325890  0.86957815     0.02200
C711        C  0.92074192  0.34510470  0.82903307     0.09000
N712        N  0.90550123  0.37480724  0.87064868     0.65400
H713        H  0.87524151  0.32505509  0.90358150     0.18300
N714        N  0.87682864  0.22478456  0.86765329     0.75900
H715        H  0.91237339  0.27667915  0.83618210     0.09800
C716        C  0.95211070  0.38133052  0.82640470     0.03500
C717        C  0.95429300  0.40312556  0.80732130    -0.05200
C718        C  0.92591317  0.38908430  0.79049420    -0.23600
C719        C  0.89646286  0.35130578  0.79213730     0.12800
C720        C  0.89400577  0.32995599  0.81142522    -0.12700
N721        N  0.98174633  0.39632974  0.84297686     0.64400
H722        H  0.97773711  0.43158908  0.80612256     0.12300
N723        N  0.86815903  0.33442599  0.77480532     0.61100
H724        H  0.86997990  0.30189836  0.81318637     0.08400
O725        O  0.90101364  0.21552870  0.87253880    -0.40400
O726        O  0.84733046  0.20179970  0.85712725    -0.39600
O727        O  0.88447432  0.38110917  0.85785107    -0.39600
O728        O  0.92352936  0.39769315  0.88658162    -0.37300
O729        O  0.83571629  0.32939711  0.77859504    -0.38200
O730        O  0.87342328  0.31831460  0.75785763    -0.34300
O731        O  0.00476263  0.38446745  0.84330198    -0.35700
O732        O  0.98969845  0.42633147  0.85349811    -0.40000
C733        C  0.72558863  0.04321606  0.01165580    -0.13700
C734        C  0.72291982  0.01486603  0.99693886     0.16700
C735        C  0.73761849  0.02429494  0.97445617     0.03000
C736        C  0.75475767  0.06168803  0.96707748    -0.12200
C737        C  0.75706727  0.09010048  0.98166368    -0.03300
C738        C  0.74239781  0.08060109  0.00423155     0.02200
C739        C  0.70240320  0.97536014  0.00488317     0.09000
N740        N  0.73534004  0.99619219  0.95892770     0.65400
H741        H  0.76565466  0.06837794  0.94966526     0.18300
N742        N  0.74491564  0.10858554  0.01995851     0.75900
H743        H  0.71392198  0.03616228  0.02887714     0.09800
C744        C  0.71460746  0.96345656  0.02406109     0.03500
C745        C  0.69296834  0.92662347  0.03217732    -0.05200
C746        C  0.65871412  0.90109920  0.02168200    -0.23600
C747        C  0.64667699  0.91318435  0.00230676     0.12800
C748        C  0.66862160  0.94998077  0.99410270    -0.12700
N749        N  0.74892090  0.98850572  0.03550688     0.64400
H750        H  0.70283465  0.91828285  0.04709250     0.12300
N751        N  0.61215130  0.88878417  0.99085672     0.61100
H752        H  0.65869342  0.95910761  0.97957725     0.08400
O753        O  0.77252689  0.12424637  0.03348194    -0.40400
O754        O  0.71662056  0.11234718  0.02331252    -0.39600
O755        O  0.71126850  0.98448021  0.94301317    -0.39600
O756        O  0.76178429  0.98898078  0.95820300    -0.37300
O757        O  0.58317841  0.89069656  0.99563537    -0.38200
O758        O  0.61241544  0.87112974  0.97311289    -0.34300
O759        O  0.74792217  0.00304880  0.05446922    -0.35700
O760        O  0.77904789  0.99007611  0.02914699    -0.40000
C761        C  0.73520546  0.70728790  0.98594308    -0.13700
C762        C  0.71075006  0.69053597  0.00465010     0.16700
C763        C  0.70658366  0.65683078  0.01389449     0.03000
C764        C  0.72743165  0.64116965  0.00466965    -0.12200
C765        C  0.75142050  0.65756275  0.98564608    -0.03300
C766        C  0.75525906  0.69112238  0.97635425     0.02200
C767        C  0.69009415  0.70898566  0.01403852     0.09000
N768        N  0.67945082  0.63679136  0.03150673     0.65400
H769        H  0.72344572  0.61499932  0.01173245     0.18300
N770        N  0.78040046  0.70991086  0.95767152     0.75900
H771        H  0.73887199  0.73327433  0.97876283     0.09800
C772        C  0.69753091  0.72537180  0.03616193     0.03500
C773        C  0.67950066  0.74491910  0.04365040    -0.05200
C774        C  0.65364939  0.74857648  0.02958048    -0.23600
C775        C  0.64527577  0.73091514  0.00770225     0.12800
C776        C  0.66380953  0.71187606  0.00009100    -0.12700
N777        N  0.72455252  0.72389740  0.05089775     0.64400
H778        H  0.68646920  0.75797504  0.06050108     0.12300
N779        N  0.61713295  0.73082721  0.99327088     0.61100
H780        H  0.65741628  0.69897472  0.98318276     0.08400
O781        O  0.81387154  0.73479794  0.96185903    -0.40400
O782        O  0.76751359  0.70702510  0.93760875    -0.39600
O783        O  0.64493636  0.62104611  0.02672056    -0.39600
O784        O  0.68957088  0.62825059  0.04995452    -0.37300
O785        O  0.62677599  0.75187425  0.97579286    -0.38200
O786        O  0.58341165  0.70498793  0.99545318    -0.34300
O787        O  0.75894253  0.74741876  0.04812458    -0.35700
O788        O  0.71379082  0.70547519  0.06944023    -0.40000
C789        C  0.58160345  0.67192559  0.13888116    -0.13700
C790        C  0.57561208  0.68087130  0.16131364     0.16700
C791        C  0.57965677  0.71662680  0.16558910     0.03000
C792        C  0.58630127  0.74124817  0.14726734    -0.12200
C793        C  0.58893567  0.73076489  0.12472390    -0.03300
C794        C  0.58832080  0.69674039  0.12059638     0.02200
C795        C  0.56090568  0.65149173  0.17946372     0.09000
N796        N  0.57396800  0.72709276  0.18808917     0.65400
H797        H  0.58694052  0.76760182  0.15047164     0.18300
N798        N  0.59472511  0.68739077  0.09794804     0.75900
H799        H  0.57986877  0.64514160  0.13547691     0.09800
C800        C  0.52636310  0.61800461  0.17632432     0.03500
C801        C  0.50912474  0.59391771  0.19493128    -0.05200
C802        C  0.52577202  0.60222648  0.21678584    -0.23600
C803        C  0.56182325  0.63390067  0.21954178     0.12800
C804        C  0.57906443  0.65838144  0.20089049    -0.12700
N805        N  0.50691635  0.60953798  0.15483189     0.64400
H806        H  0.48159759  0.56939244  0.19252994     0.12300
N807        N  0.57976839  0.64327475  0.24152249     0.61100
H808        H  0.60590704  0.68369381  0.20341498     0.08400
O809        O  0.56736191  0.66563962  0.08541446    -0.40400
O810        O  0.62749144  0.70389600  0.08963216    -0.39600
O811        O  0.60176716  0.75128749  0.19941292    -0.39600
O812        O  0.54115168  0.71746195  0.19479196    -0.37300
O813        O  0.60387006  0.63384115  0.24627025    -0.38200
O814        O  0.57649982  0.66631389  0.25436692    -0.34300
O815        O  0.50650424  0.58455103  0.14193914    -0.35700
O816        O  0.48502882  0.62203004  0.15069731    -0.40000
C817        C  0.97015755  0.24563266  0.98426247    -0.13700
C818        C  0.97764132  0.26989914  0.00305618     0.16700
C819        C  0.94873480  0.27549943  0.01172916     0.03000
C820        C  0.91316972  0.25703008  0.00159694    -0.12200
C821        C  0.90578963  0.23345941  0.98244299    -0.03300
C822        C  0.93467187  0.22766164  0.97379991     0.02200
C823        C  0.01654824  0.29212716  0.01190829     0.09000
N824        N  0.95527728  0.30042538  0.03059773     0.65400
H825        H  0.89149778  0.26210912  0.00836055     0.18300
N826        N  0.92841907  0.20353634  0.95453439     0.75900
H827        H  0.99231556  0.24159758  0.97720176     0.09800
C828        C  0.03552656  0.27507731  0.02190919     0.03500
C829        C  0.07246770  0.29743645  0.02984778    -0.05200
C830        C  0.09140014  0.33686683  0.02761117    -0.23600
C831        C  0.07233534  0.35362542  0.01705501     0.12800
C832        C  0.03538156  0.33126684  0.00943463    -0.12700
N833        N  0.01753767  0.23515163  0.02430900     0.64400
H834        H  0.08644777  0.28376275  0.03762123     0.12300
N835        N  0.09008789  0.39327889  0.01354880     0.61100
H836        H  0.02141036  0.34461156  0.00121105     0.08400
O837        O  0.92026437  0.16991867  0.95788458    -0.40400
O838        O  0.93767391  0.21746031  0.93460985    -0.39600
O839        O  0.95865126  0.33226338  0.02687461    -0.39600
O840        O  0.95013626  0.28793808  0.05091403    -0.37300
O841        O  0.10206292  0.40640665  0.99373002    -0.38200
O842        O  0.08647931  0.41362098  0.02849241    -0.34300
O843        O  0.02579561  0.21642612  0.01064545    -0.35700
O844        O  0.99875221  0.21966328  0.04223806    -0.40000
C845        C  0.31840244  0.29397845  0.98006900    -0.13700
C846        C  0.29479810  0.27835828  0.99928703     0.16700
C847        C  0.29024020  0.24472095  0.00895497     0.03000
C848        C  0.31003247  0.22806632  0.99973299    -0.12200
C849        C  0.33327294  0.24354811  0.98043225    -0.03300
C850        C  0.33765832  0.27693073  0.97064551     0.02200
C851        C  0.27563476  0.29790942  0.00906609     0.09000
N852        N  0.26383357  0.22584289  0.02710925     0.65400
H853        H  0.30600634  0.20203703  0.00708153     0.18300
N854        N  0.36289396  0.29465671  0.95177959     0.75900
H855        H  0.32244411  0.31995466  0.97263294     0.09800
C856        C  0.28221375  0.31170042  0.03184891     0.03500
C857        C  0.26327841  0.32959187  0.04047135    -0.05200
C858        C  0.23851685  0.33532347  0.02664876    -0.23600
C859        C  0.23232178  0.32186418  0.00373573     0.12800
C860        C  0.25077243  0.30331091  0.99522205    -0.12700
N861        N  0.30977991  0.30995787  0.04597729     0.64400
H862        H  0.26923242  0.34044200  0.05790523     0.12300
N863        N  0.20658840  0.32570849  0.98908027     0.61100
H864        H  0.24544445  0.29279200  0.97770725     0.08400
O865        O  0.39784931  0.30914708  0.95467399    -0.40400
O866        O  0.35016623  0.29389630  0.93191663    -0.39600
O867        O  0.22914781  0.21043403  0.02290373    -0.39600
O868        O  0.27453460  0.21765119  0.04545613    -0.37300
O869        O  0.21902051  0.35040851  0.97348130    -0.38200
O870        O  0.17259602  0.30003280  0.98869065    -0.34300
O871        O  0.34411035  0.32995689  0.04091021    -0.35700
O872        O  0.30068856  0.29506561  0.06567340    -0.40000
C873        C  0.36070513  0.57620012  0.02369380    -0.13700
C874        C  0.39092328  0.56953951  0.02449542     0.16700
C875        C  0.38388756  0.53233750  0.02621528     0.03000
C876        C  0.34684719  0.50257908  0.02871854    -0.12200
C877        C  0.31696655  0.50982168  0.03011037    -0.03300
C878        C  0.32395077  0.54684142  0.02677224     0.02200
C879        C  0.42833022  0.60224706  0.02907066     0.09000
N880        N  0.41418876  0.52476649  0.02711360     0.65400
H881        H  0.34177893  0.47429384  0.03140274     0.18300
N882        N  0.29425429  0.55541587  0.02800657     0.75900
H883        H  0.36594205  0.60480046  0.02262410     0.09800
C884        C  0.45079840  0.62646936  0.01136961     0.03500
C885        C  0.48067827  0.66230399  0.01686628    -0.05200
C886        C  0.48773987  0.67466557  0.03984735    -0.23600
C887        C  0.46639063  0.64943550  0.05759949     0.12800
C888        C  0.43728067  0.61345142  0.05206286    -0.12700
N889        N  0.44227881  0.61580786  0.98777717     0.64400
H890        H  0.49692351  0.68127278  0.00306531     0.12300
N891        N  0.47296885  0.66031494  0.08129874     0.61100
H892        H  0.41980413  0.59507568  0.06576592     0.08400
O893        O  0.28809737  0.56714972  0.04670194    -0.40400
O894        O  0.27995642  0.55893843  0.00964830    -0.39600
O895        O  0.42457115  0.51870709  0.04627854    -0.39600
O896        O  0.42592252  0.51766016  0.00874776    -0.37300
O897        O  0.45446430  0.67366660  0.09074493    -0.38200
O898        O  0.49017122  0.64870096  0.09376353    -0.34300
O899        O  0.42608228  0.62919737  0.97587343    -0.35700
O900        O  0.45635010  0.59823795  0.97797583    -0.40000
C901        C  0.33592639  0.44423639  0.14389429    -0.13700
C902        C  0.31913471  0.42000405  0.16268821     0.16700
C903        C  0.28150538  0.39072959  0.16069676     0.03000
C904        C  0.26101454  0.38753342  0.14068577    -0.12200
C905        C  0.27723540  0.41314328  0.12235807    -0.03300
C906        C  0.31565698  0.44094925  0.12385084     0.02200
C907        C  0.33958170  0.42998466  0.18506896     0.09000
N908        N  0.26343584  0.36453105  0.17903736     0.65400
H909        H  0.23176846  0.36572422  0.13994629     0.18300
N910        N  0.33435825  0.46704803  0.10555246     0.75900
H911        H  0.36450452  0.46734675  0.14520615     0.09800
C912        C  0.37712873  0.43796346  0.18667191     0.03500
C913        C  0.39870076  0.45669587  0.20606509    -0.05200
C914        C  0.38355616  0.46764995  0.22423664    -0.23600
C915        C  0.34493238  0.45647466  0.22352838     0.12800
C916        C  0.32358519  0.43823782  0.20398598    -0.12700
N917        N  0.39413044  0.42832351  0.16838317     0.64400
H918        H  0.42798050  0.46420383  0.20633421     0.12300
N919        N  0.32715194  0.46455257  0.24210910     0.61100
H920        H  0.29494119  0.43265162  0.20307305     0.08400
O921        O  0.35292263  0.46024991  0.09090289    -0.40400
O922        O  0.33847266  0.49961421  0.10666139    -0.39600
O923        O  0.23687965  0.36462933  0.18994091    -0.39600
O924        O  0.26870117  0.33691016  0.18112107    -0.37300
O925        O  0.32181593  0.49221294  0.24066817    -0.38200
O926        O  0.31079802  0.44039466  0.25773763    -0.34300
O927        O  0.42031210  0.45404404  0.15674147    -0.35700
O928        O  0.38835712  0.39516239  0.16699171    -0.40000
C929        C  0.21330191  0.49341664  0.29341644    -0.13700
C930        C  0.23057605  0.50545792  0.31492278     0.16700
C931        C  0.21334489  0.51661001  0.33180968     0.03000
C932        C  0.18041841  0.51745598  0.32649968    -0.12200
C933        C  0.16487708  0.50819838  0.30431978    -0.03300
C934        C  0.18109511  0.49513605  0.28787876     0.02200
C935        C  0.26959987  0.51271262  0.31737888     0.09000
N936        N  0.22991913  0.52872702  0.35402619     0.65400
H937        H  0.16850931  0.52786164  0.33922725     0.18300
N938        N  0.16601227  0.48457853  0.26518212     0.75900
H939        H  0.22652973  0.48533677  0.28016865     0.09800
C940        C  0.27837987  0.48373974  0.31488685     0.03500
C941        C  0.31587935  0.49266579  0.31202309    -0.05200
C942        C  0.34482951  0.53025572  0.31092487    -0.23600
C943        C  0.33619443  0.55918576  0.31426935     0.12800
C944        C  0.29889146  0.55021619  0.31769433    -0.12700
N945        N  0.24932204  0.44524480  0.31410525     0.64400
H946        H  0.32210709  0.47022663  0.30925221     0.12300
N947        N  0.36489574  0.59788315  0.31340740     0.61100
H948        H  0.29254056  0.57279600  0.31907948     0.08400
O949        O  0.15382916  0.45111022  0.25868486    -0.40400
O950        O  0.17423619  0.50979746  0.25021242    -0.39600
O951        O  0.24673956  0.56327516  0.35900586    -0.39600
O952        O  0.22225569  0.50476208  0.36974847    -0.37300
O953        O  0.37005008  0.61633958  0.29508245    -0.38200
O954        O  0.37980347  0.61511803  0.33185876    -0.34300
O955        O  0.24023668  0.42814592  0.29506319    -0.35700
O956        O  0.23779965  0.42677386  0.33258269    -0.40000
C957        C  0.04898836  0.43335117  0.17821513    -0.13700
C958        C  0.07377222  0.41940098  0.18060775     0.16700
C959        C  0.08928483  0.42051467  0.20235798     0.03000
C960        C  0.08241589  0.43830277  0.22076238    -0.12200
C961        C  0.06101740  0.45603077  0.21781403    -0.03300
C962        C  0.04218907  0.45133719  0.19666643     0.02200
C963        C  0.09120425  0.41405319  0.15972724     0.09000
N964        N  0.11600731  0.40823196  0.20526611     0.65400
H965        H  0.09608747  0.44069430  0.23692467     0.18300
N966        N  0.01904555  0.46765857  0.19285976     0.75900
H967        H  0.03722658  0.43289442  0.16150011     0.09800
C968        C  0.08383237  0.37860211  0.15168605     0.03500
C969        C  0.10536854  0.37640560  0.13347779    -0.05200
C970        C  0.13424154  0.40930380  0.12326979    -0.23600
C971        C  0.13984439  0.44456570  0.13071324     0.12800
C972        C  0.11851236  0.44653639  0.14875545    -0.12700
N973        N  0.05443241  0.34485358  0.16162180     0.64400
H974        H  0.10016145  0.34908726  0.12773234     0.12300
N975        N  0.16587414  0.47875636  0.11947240     0.61100
H976        H  0.12393089  0.47390454  0.15462144     0.08400
O977        O  0.98466467  0.44915206  0.19807841    -0.40400
O978        O  0.03049438  0.49571718  0.17969661    -0.39600
O979        O  0.15033094  0.43087393  0.20142629    -0.39600
O980        O  0.10655064  0.37793623  0.21582754    -0.37300
O981        O  0.15316109  0.49542912  0.10742788    -0.38200
O982        O  0.19930267  0.49690776  0.12658590    -0.34300
O983        O  0.02166838  0.33040083  0.15350148    -0.35700
O984        O  0.06233856  0.32619977  0.17548177    -0.40000
C985        C  0.95814687  0.66707039  0.00397299    -0.13700
C986        C  0.97584665  0.70636976  0.00354520     0.16700
C987        C  0.95660029  0.72359435  0.99410921     0.03000
C988        C  0.92000721  0.70130143  0.98546608    -0.12200
C989        C  0.90208026  0.66176184  0.98592947    -0.03300
C990        C  0.92184114  0.64475750  0.99521795     0.02200
C991        C  0.01520979  0.72833214  0.01182695     0.09000
N992        N  0.97436258  0.76358948  0.99234885     0.65400
H993        H  0.90564341  0.71503485  0.97830614     0.18300
N994        N  0.90629010  0.60487869  0.99488442     0.75900
H995        H  0.97299377  0.65357191  0.01077208     0.09800
C996        C  0.02415599  0.74594779  0.03355868     0.03500
C997        C  0.06133361  0.76344398  0.04160488    -0.05200
C998        C  0.08997178  0.76269538  0.02865669    -0.23600
C999        C  0.08072381  0.74508369  0.00672926     0.12800
C1000       C  0.04377171  0.72848257  0.99854865    -0.12700
N1001       N  0.99535029  0.74383266  0.04836488     0.64400
H1002       H  0.06740101  0.77617674  0.05855343     0.12300
N1003       N  0.10826319  0.74322960  0.99258128     0.61100
H1004       H  0.03708629  0.71464913  0.98191307     0.08400
O1005       O  0.89513521  0.58652351  0.01342184    -0.40400
O1006       O  0.91034815  0.58934305  0.97719900    -0.39600
O1007       O  0.99177396  0.77960739  0.97412671    -0.39600
O1008       O  0.96603180  0.78158056  0.00655152    -0.37300
O1009       O  0.11175756  0.71439554  0.99338586    -0.38200
O1010       O  0.12331816  0.76635362  0.97628456    -0.34300
O1011       O  0.97661154  0.71483681  0.06053122    -0.35700
O1012       O  0.99387965  0.77319548  0.05272872    -0.40000
C1013       C  0.25952173  0.98051118  0.03481317    -0.13700
C1014       C  0.26801410  0.98492690  0.01123351     0.16700
C1015       C  0.25791919  0.95293677  0.99756670     0.03000
C1016       C  0.23942859  0.91722261  0.00762172    -0.12200
C1017       C  0.23195825  0.91254189  0.03144323    -0.03300
C1018       C  0.24199848  0.94484835  0.04506599     0.02200
C1019       C  0.29014347  0.02331098  0.00166862     0.09000
N1020       N  0.26906890  0.95639938  0.97392572     0.65400
H1021       H  0.23267094  0.89316804  0.99677750     0.18300
N1022       N  0.23609095  0.94231414  0.06941348     0.75900
H1023       H  0.26762056  0.00508962  0.04546689     0.09800
C1024       C  0.27554209  0.03721174  0.98489895     0.03500
C1025       C  0.29802344  0.07356995  0.97615791    -0.05200
C1026       C  0.33512310  0.09682081  0.98389209    -0.23600
C1027       C  0.34959957  0.08241121  0.00062285     0.12800
C1028       C  0.32705735  0.04604824  0.00929263    -0.12700
N1029       N  0.23762986  0.01527845  0.97710341     0.64400
H1030       H  0.28606000  0.08367608  0.96335470     0.12300
N1031       N  0.38728979  0.10373188  0.00873868     0.61100
H1032       H  0.33859447  0.03532750  0.02200982     0.08400
O1033       O  0.20848736  0.94388858  0.07767846    -0.40400
O1034       O  0.26185423  0.94553894  0.08264251    -0.39600
O1035       O  0.30324564  0.96907950  0.96902818    -0.39600
O1036       O  0.24453867  0.93979441  0.95856959    -0.37300
O1037       O  0.39480599  0.12694665  0.02493885    -0.38200
O1038       O  0.41038930  0.09310101  0.00364001    -0.34300
O1039       O  0.21121727  0.01206329  0.98979677    -0.35700
O1040       O  0.23123511  0.00611693  0.95614724    -0.40000
C1041       C  0.14948101  0.61669728  0.04692512    -0.13700
C1042       C  0.17925356  0.61429269  0.03679867     0.16700
C1043       C  0.21004997  0.64662105  0.02752140     0.03000
C1044       C  0.21161465  0.68129755  0.02936217    -0.12200
C1045       C  0.18341559  0.68424483  0.04122845    -0.03300
C1046       C  0.15148636  0.65161088  0.04928121     0.02200
C1047       C  0.18087704  0.57953686  0.03937028     0.09000
N1048       N  0.24192418  0.64546222  0.01862910     0.65400
H1049       H  0.23572813  0.70573752  0.02328558     0.18300
N1050       N  0.12112259  0.65359166  0.05990415     0.75900
H1051       H  0.12577539  0.59188967  0.05399102     0.09800
C1052       C  0.19074461  0.57105718  0.06070647     0.03500
C1053       C  0.19502451  0.53964080  0.06277894    -0.05200
C1054       C  0.18886235  0.51552899  0.04399319    -0.23600
C1055       C  0.17899375  0.52424928  0.02247907     0.12800
C1056       C  0.17504225  0.55617847  0.02039607    -0.12700
N1057       N  0.19776411  0.59497668  0.08022544     0.64400
H1058       H  0.20457155  0.53487869  0.07916651     0.12300
N1059       N  0.17267256  0.50118928  0.00266764     0.61100
H1060       H  0.16786064  0.56307313  0.00382229     0.08400
O1061       O  0.11811117  0.65243750  0.08155605    -0.40400
O1062       O  0.09413407  0.64992301  0.04769844    -0.39600
O1063       O  0.24571236  0.64375459  0.99717409    -0.39600
O1064       O  0.26896633  0.65228868  0.03181420    -0.37300
O1065       O  0.14055582  0.48503431  0.99354648    -0.38200
O1066       O  0.20045335  0.50521864  0.99107181    -0.34300
O1067       O  0.17225863  0.58691003  0.09498208    -0.35700
O1068       O  0.22875367  0.62514761  0.08211756    -0.40000
C1069       C  0.06970897  0.65812751  0.20377802    -0.13700
C1070       C  0.07769091  0.65099531  0.18138924     0.16700
C1071       C  0.07577625  0.61644874  0.17665400     0.03000
C1072       C  0.06855066  0.59083703  0.19442278    -0.12200
C1073       C  0.06276136  0.59865847  0.21708537    -0.03300
C1074       C  0.06211743  0.63212793  0.22167330     0.02200
C1075       C  0.09738745  0.68242138  0.16490583     0.09000
N1076       N  0.08513507  0.60876753  0.15434528     0.65400
H1077       H  0.06978480  0.56567646  0.19073203     0.18300
N1078       N  0.05871641  0.64231671  0.24472492     0.75900
H1079       H  0.07233989  0.68512742  0.20774132     0.09800
C1080       C  0.07886300  0.69043067  0.14735820     0.03500
C1081       C  0.09992442  0.71691198  0.13017131    -0.05200
C1082       C  0.13946212  0.73521822  0.13006140    -0.23600
C1083       C  0.15769100  0.72787251  0.14844635     0.12800
C1084       C  0.13656397  0.70198977  0.16554285    -0.12700
N1085       N  0.03881786  0.67126236  0.14648835     0.64400
H1086       H  0.08527072  0.72209177  0.11645970     0.12300
N1087       N  0.19769913  0.74535979  0.14980658     0.61100
H1088       H  0.15098719  0.69584439  0.17897621     0.08400
O1089       O  0.08766667  0.65903985  0.25710981    -0.40400
O1090       O  0.02898718  0.64172622  0.25092104    -0.39600
O1091       O  0.11777994  0.61435014  0.15056338    -0.39600
O1092       O  0.05933216  0.59012401  0.14005005    -0.37300
O1093       O  0.21387458  0.72910580  0.14092313    -0.38200
O1094       O  0.21521081  0.77126868  0.16428626    -0.34300
O1095       O  0.02150132  0.68718619  0.15411678    -0.35700
O1096       O  0.02127990  0.64120728  0.13507897    -0.40000
C1097       C  0.44304305  0.83887363  0.04959957    -0.13700
C1098       C  0.42541932  0.82734821  0.02818122     0.16700
C1099       C  0.44065296  0.81352747  0.01160542     0.03000
C1100       C  0.47078413  0.80814598  0.01751516    -0.12200
C1101       C  0.48688237  0.81718591  0.03964444    -0.03300
C1102       C  0.47368218  0.83448003  0.05535480     0.02200
C1103       C  0.38800580  0.82427438  0.02544365     0.09000
N1104       N  0.42602721  0.80513760  0.98870877     0.65400
H1105       H  0.48103337  0.79606341  0.00481200     0.18300
N1106       N  0.49055509  0.84741988  0.07739656     0.75900
H1107       H  0.43192598  0.85000795  0.06240333     0.09800
C1108       C  0.35531250  0.78856069  0.02481089     0.03500
C1109       C  0.32003415  0.78535380  0.02788923    -0.05200
C1110       C  0.31642841  0.81717071  0.03199791    -0.23600
C1111       C  0.34873322  0.85310110  0.03106451     0.12800
C1112       C  0.38428284  0.85642623  0.02788166    -0.12700
N1113       N  0.35745843  0.75481467  0.02393072     0.64400
H1114       H  0.29616109  0.75820944  0.02885547     0.12300
N1115       N  0.34644310  0.88607040  0.03573088     0.61100
H1116       H  0.40906828  0.88383308  0.02875023     0.08400
O1117       O  0.47171972  0.83176463  0.09529399    -0.40400
O1118       O  0.51952778  0.87948340  0.07896280    -0.39600
O1119       O  0.43303121  0.83184946  0.97512943    -0.39600
O1120       O  0.41364214  0.77244682  0.98069549    -0.37300
O1121       O  0.35196460  0.89908708  0.05593196    -0.38200
O1122       O  0.34621128  0.90589691  0.01922195    -0.34300
O1123       O  0.36889691  0.74505065  0.04132091    -0.35700
O1124       O  0.34098030  0.73135204  0.00798362    -0.40000
C1125       C  0.48399648  0.78363210  0.32771110    -0.13700
C1126       C  0.50665679  0.77952930  0.31107536     0.16700
C1127       C  0.52665839  0.80895938  0.29515114     0.03000
C1128       C  0.52056822  0.83956248  0.29449262    -0.12200
C1129       C  0.49541750  0.84189720  0.30977272    -0.03300
C1130       C  0.47850521  0.81477830  0.32724474     0.02200
C1131       C  0.50183531  0.74157292  0.30692893     0.09000
N1132       N  0.55085991  0.80660507  0.27831339     0.65400
H1133       H  0.53347353  0.86023399  0.28088170     0.18300
N1134       N  0.45240256  0.81636536  0.34286328     0.75900
H1135       H  0.46797163  0.76111049  0.33981527     0.09800
C1136       C  0.50804000  0.72089268  0.32402329     0.03500
C1137       C  0.49855057  0.68338950  0.31974802    -0.05200
C1138       C  0.48342013  0.66620707  0.29843354    -0.23600
C1139       C  0.47787649  0.68738254  0.28125946     0.12800
C1140       C  0.48667081  0.72429708  0.28575222    -0.12700
N1141       N  0.52462425  0.73780564  0.34555865     0.64400
H1142       H  0.50333405  0.66779300  0.33305576     0.12300
N1143       N  0.46132499  0.67125858  0.25952993     0.61100
H1144       H  0.48034584  0.73920715  0.27274508     0.08400
O1145       O  0.41762957  0.79734515  0.33887442    -0.40400
O1146       O  0.46421282  0.84017774  0.35898149    -0.39600
O1147       O  0.54139513  0.80192906  0.25737693    -0.39600
O1148       O  0.58437081  0.81686769  0.28361019    -0.37300
O1149       O  0.42626918  0.65631342  0.25699377    -0.38200
O1150       O  0.48204149  0.67827369  0.24202568    -0.34300
O1151       O  0.50454814  0.72871485  0.36347677    -0.35700
O1152       O  0.55992390  0.75573962  0.34741621    -0.40000
C1153       C  0.56896727  0.95222811  0.18197672    -0.13700
C1154       C  0.57692704  0.92279359  0.18123520     0.16700
C1155       C  0.57142219  0.90116592  0.20117208     0.03000
C1156       C  0.55535017  0.90722360  0.22086767    -0.12200
C1157       C  0.54457029  0.93487511  0.22120797    -0.03300
C1158       C  0.55342585  0.95880998  0.20180033     0.02200
C1159       C  0.58430140  0.91032513  0.15880224     0.09000
N1160       N  0.57906830  0.87079699  0.20095862     0.65400
H1161       H  0.54939752  0.88872061  0.23550449     0.18300
N1162       N  0.54475283  0.98844692  0.20130987     0.75900
H1163       H  0.57313619  0.96901604  0.16670005     0.09800
C1164       C  0.55407535  0.88883278  0.14393422     0.03500
C1165       C  0.55893894  0.87029218  0.12524863    -0.05200
C1166       C  0.59388840  0.87356949  0.12034165    -0.23600
C1167       C  0.62501118  0.89741044  0.13416788     0.12800
C1168       C  0.61990529  0.91522359  0.15351981    -0.12700
N1169       N  0.51738303  0.88293963  0.14872802     0.64400
H1170       H  0.53479525  0.85152798  0.11527761     0.12300
N1171       N  0.66094482  0.90103406  0.13009883     0.61100
H1172       H  0.64325318  0.93149139  0.16493682     0.08400
O1173       O  0.56934216  0.02119356  0.20730603    -0.40400
O1174       O  0.51531867  0.98340046  0.19137344    -0.39600
O1175       O  0.61120898  0.87662115  0.20648074    -0.39600
O1176       O  0.55480614  0.83896230  0.19340852    -0.37300
O1177       O  0.68538986  0.92885024  0.11885648    -0.38200
O1178       O  0.67039664  0.88055474  0.14106676    -0.34300
O1179       O  0.50651546  0.90329261  0.13899616    -0.35700
O1180       O  0.49389897  0.85368251  0.15930616    -0.40000
C1181       C  0.28613039  0.77242440  0.27913625    -0.13700
C1182       C  0.27301099  0.75909592  0.30136767     0.16700
C1183       C  0.29636622  0.77819185  0.32027166     0.03000
C1184       C  0.33223971  0.80967646  0.31659592    -0.12200
C1185       C  0.34575448  0.82270913  0.29420606    -0.03300
C1186       C  0.32173899  0.80362478  0.27535465     0.02200
C1187       C  0.23696144  0.72274592  0.30370669     0.09000
N1188       N  0.28405562  0.76598184  0.34329728     0.65400
H1189       H  0.34978276  0.82354773  0.33137824     0.18300
N1190       N  0.33364742  0.81380428  0.25204882     0.75900
H1191       H  0.26915592  0.75744820  0.26436143     0.09800
C1192       C  0.20401885  0.71702910  0.29252111     0.03500
C1193       C  0.17356779  0.68052382  0.28965430    -0.05200
C1194       C  0.17465624  0.64925613  0.29834041    -0.23600
C1195       C  0.20652326  0.65501592  0.31085183     0.12800
C1196       C  0.23735863  0.69153477  0.31333960    -0.12700
N1197       N  0.20136468  0.74807161  0.28361715     0.64400
H1198       H  0.14910614  0.67656271  0.28039229     0.12300
N1199       N  0.20962354  0.62381849  0.31899924     0.61100
H1200       H  0.26265899  0.69512803  0.32139225     0.08400
O1201       O  0.34313878  0.79385982  0.24044280    -0.40400
O1202       O  0.32659642  0.83668227  0.24182195    -0.39600
O1203       O  0.29951813  0.75156735  0.35496890    -0.39600
O1204       O  0.26275712  0.77558587  0.35317539    -0.37300
O1205       O  0.22138141  0.60768604  0.30560492    -0.38200
O1206       O  0.20688492  0.61667418  0.34027042    -0.34300
O1207       O  0.19824167  0.75090056  0.26220175    -0.35700
O1208       O  0.19507253  0.76829911  0.29723164    -0.40000
C1209       C  0.37205100  0.89598995  0.17768863    -0.13700
C1210       C  0.36078533  0.92257878  0.17429782     0.16700
C1211       C  0.37199990  0.95223176  0.19018305     0.03000
C1212       C  0.39461384  0.95492116  0.20906158    -0.12200
C1213       C  0.40639501  0.92837380  0.21232147    -0.03300
C1214       C  0.39494138  0.89872270  0.19605876     0.02200
C1215       C  0.33507634  0.91602520  0.15480384     0.09000
N1216       N  0.36111943  0.97999112  0.18718974     0.65400
H1217       H  0.40296306  0.97785513  0.22114408     0.18300
N1218       N  0.40597099  0.87078856  0.19773754     0.75900
H1219       H  0.36277057  0.87250813  0.16589234     0.09800
C1220       C  0.34569708  0.91219061  0.13231215     0.03500
C1221       C  0.31820021  0.89258429  0.11573221    -0.05200
C1222       C  0.27990059  0.87685736  0.12094899    -0.23600
C1223       C  0.26951862  0.88452956  0.14266364     0.12800
C1224       C  0.29717101  0.90377733  0.15945727    -0.12700
N1225       N  0.38416279  0.92534926  0.12662880     0.64400
H1226       H  0.32684823  0.88786551  0.09903659     0.12300
N1227       N  0.23099191  0.86995168  0.14873812     0.61100
H1228       H  0.28862502  0.90624448  0.17673340     0.08400
O1229       O  0.38123263  0.83689584  0.20101081    -0.40400
O1230       O  0.43797884  0.87830649  0.19052979    -0.39600
O1231       O  0.33534950  0.97894834  0.19957614    -0.39600
O1232       O  0.38154527  0.00895456  0.17536249    -0.37300
O1233       O  0.21421837  0.84029975  0.16058208    -0.38200
O1234       O  0.21634134  0.89039614  0.14633398    -0.34300
O1235       O  0.39543290  0.90203320  0.12413183    -0.35700
O1236       O  0.40433699  0.95857594  0.11944177    -0.40000
C1237       C  0.66019555  0.71594085  0.68276971    -0.13700
C1238       C  0.64450567  0.68620203  0.66695508     0.16700
C1239       C  0.64567285  0.69415385  0.64330141     0.03000
C1240       C  0.66288310  0.73151068  0.63584139    -0.12200
C1241       C  0.67892128  0.76163357  0.65155023    -0.03300
C1242       C  0.67720991  0.75340269  0.67535711     0.02200
C1243       C  0.62571869  0.64703490  0.67553159     0.09000
N1244       N  0.62779355  0.66460953  0.62674181     0.65400
H1245       H  0.66297697  0.73681596  0.61759106     0.18300
N1246       N  0.69152252  0.78249891  0.69232843     0.75900
H1247       H  0.65893374  0.70999003  0.70102754     0.09800
C1248       C  0.64010969  0.62295886  0.67087131     0.03500
C1249       C  0.62055398  0.58560341  0.67844479    -0.05200
C1250       C  0.58718307  0.57177024  0.69134900    -0.23600
C1251       C  0.57352795  0.59652925  0.69656239     0.12800
C1252       C  0.59266836  0.63362140  0.68845685    -0.12700
N1253       N  0.67559289  0.63660122  0.65964800     0.64400
H1254       H  0.63228715  0.56767612  0.67472617     0.12300
N1255       N  0.54042246  0.58472417  0.71009452     0.61100
H1256       H  0.58162642  0.65212482  0.69226943     0.08400
O1257       O  0.72289671  0.79256923  0.70156573    -0.40400
O1258       O  0.67009152  0.79304018  0.70096738    -0.39600
O1259       O  0.59256210  0.64809174  0.62457854    -0.39600
O1260       O  0.64724915  0.66067112  0.61131944    -0.37300
O1261       O  0.54337324  0.59093588  0.73149277    -0.38200
O1262       O  0.50956820  0.57498320  0.70024364    -0.34300
O1263       O  0.70535860  0.65730268  0.67067701    -0.35700
O1264       O  0.67744498  0.62179605  0.64099075    -0.40000
C1265       C  0.62545775  0.99909178  0.67402319    -0.13700
C1266       C  0.61265484  0.96268573  0.68246378     0.16700
C1267       C  0.58414745  0.94828153  0.69937027     0.03000
C1268       C  0.56785539  0.96957650  0.70664833    -0.12200
C1269       C  0.57986806  0.00573150  0.69772112    -0.03300
C1270       C  0.60972465  0.02069988  0.68149951     0.02200
C1271       C  0.63032584  0.94095297  0.67375475     0.09000
N1272       N  0.57103195  0.91185967  0.70911249     0.65400
H1273       H  0.54557760  0.95756473  0.71935834     0.18300
N1274       N  0.62491968  0.05795149  0.67255950     0.75900
H1275       H  0.64835205  0.01115056  0.66172077     0.09800
C1276       C  0.63061260  0.93351683  0.65001582     0.03500
C1277       C  0.64989980  0.91561058  0.64200577    -0.05200
C1278       C  0.66992773  0.90555958  0.65715111    -0.23600
C1279       C  0.66932598  0.91252141  0.68093759     0.12800
C1280       C  0.64947628  0.92990895  0.68903250    -0.12700
N1281       N  0.61185975  0.94448534  0.63374094     0.64400
H1282       H  0.65028806  0.91071305  0.62370022     0.12300
N1283       N  0.68823010  0.90157713  0.69711334     0.61100
H1284       H  0.64995583  0.93578650  0.70725273     0.08400
O1285       O  0.61666661  0.06266264  0.65239322    -0.40400
O1286       O  0.65168539  0.08511050  0.68294892    -0.39600
O1287       O  0.58103922  0.90908659  0.72920136    -0.39600
O1288       O  0.54399334  0.88350542  0.69978968    -0.37300
O1289       O  0.72024065  0.92567620  0.70444189    -0.38200
O1290       O  0.67026576  0.87023224  0.70716940    -0.34300
O1291       O  0.63085974  0.97288727  0.62115639    -0.35700
O1292       O  0.57802446  0.92187906  0.62874484    -0.40000
C1293       C  0.69835059  0.61482276  0.35366639    -0.13700
C1294       C  0.68564792  0.63626767  0.34202289     0.16700
C1295       C  0.70945640  0.67535362  0.34016692     0.03000
C1296       C  0.74551095  0.69238350  0.34969165    -0.12200
C1297       C  0.75856687  0.67125174  0.36158149    -0.03300
C1298       C  0.73435855  0.63188494  0.36353348     0.02200
C1299       C  0.64663029  0.61787025  0.33322000     0.09000
N1300       N  0.69695491  0.69830574  0.32923931     0.65400
H1301       H  0.76309729  0.72257524  0.34810335     0.18300
N1302       N  0.74573790  0.60875595  0.37538821     0.75900
H1303       H  0.67999085  0.58472328  0.35537247     0.09800
C1304       C  0.63770543  0.60390167  0.31056804     0.03500
C1305       C  0.60026704  0.58610543  0.30304874    -0.05200
C1306       C  0.57133232  0.58247695  0.31770358    -0.23600
C1307       C  0.58053192  0.59660630  0.34042787     0.12800
C1308       C  0.61788906  0.61400987  0.34794843    -0.12700
N1309       N  0.66643636  0.60805212  0.29494203     0.64400
H1310       H  0.59394976  0.57589426  0.28548978     0.12300
N1311       N  0.55211126  0.59221156  0.35639393     0.61100
H1312       H  0.62450638  0.62443402  0.36545670     0.08400
O1313       O  0.75858107  0.59134404  0.36410245    -0.40400
O1314       O  0.73653926  0.60031340  0.39620624    -0.39600
O1315       O  0.68232242  0.71329485  0.34124571    -0.39600
O1316       O  0.70709570  0.70941663  0.30885794    -0.37300
O1317       O  0.53612855  0.56302569  0.36871549    -0.38200
O1318       O  0.54821170  0.62005523  0.36124144    -0.34300
O1319       O  0.67126406  0.58048525  0.29112030    -0.35700
O1320       O  0.68185837  0.63644120  0.28193539    -0.40000
C1321       C  0.95285655  0.59336622  0.31194265    -0.13700
C1322       C  0.96674250  0.61600437  0.33158596     0.16700
C1323       C  0.99844221  0.61897564  0.34276510     0.03000
C1324       C  0.01585764  0.59951199  0.33417864    -0.12200
C1325       C  0.00192017  0.57639235  0.31457362    -0.03300
C1326       C  0.96988123  0.57345280  0.30343794     0.02200
C1327       C  0.94622261  0.63417517  0.34111927     0.09000
N1328       N  0.01338959  0.64192336  0.36280192     0.65400
H1329       H  0.04031195  0.60238253  0.34303826     0.18300
N1330       N  0.95432175  0.55066715  0.28338601     0.75900
H1331       H  0.92823440  0.59065043  0.30337035     0.09800
C1332       C  0.94811961  0.66603468  0.33069771     0.03500
C1333       C  0.92754903  0.68188443  0.33990559    -0.05200
C1334       C  0.90493925  0.66650943  0.35957709    -0.23600
C1335       C  0.90247881  0.63391047  0.36964715     0.12800
C1336       C  0.92320772  0.61829416  0.36044622    -0.12700
N1337       N  0.97192710  0.68340207  0.31126367     0.64400
H1338       H  0.93031543  0.70708171  0.33205937     0.12300
N1339       N  0.87817427  0.61556689  0.38877524     0.61100
H1340       H  0.92096147  0.59328647  0.36826478     0.08400
O1341       O  0.96250831  0.56578445  0.26373597    -0.40400
O1342       O  0.92698214  0.51765040  0.28549361    -0.39600
O1343       O  0.00755781  0.62676704  0.38240471    -0.39600
O1344       O  0.03681028  0.67650719  0.36063009    -0.37300
O1345       O  0.84406058  0.59188047  0.38523323    -0.38200
O1346       O  0.89194020  0.61805277  0.40853430    -0.34300
O1347       O  0.95769184  0.67910627  0.29149119    -0.35700
O1348       O  0.00583989  0.70809363  0.31437761    -0.40000
C1349       C  0.76166734  0.74629579  0.48174200    -0.13700
C1350       C  0.78035811  0.75498782  0.50298848     0.16700
C1351       C  0.81159937  0.74998683  0.50578942     0.03000
C1352       C  0.82570019  0.73979290  0.48689347    -0.12200
C1353       C  0.80879677  0.73379976  0.46514477    -0.03300
C1354       C  0.77547344  0.73539535  0.46284169     0.02200
C1355       C  0.77098857  0.77481336  0.52079628     0.09000
N1356       N  0.83032201  0.75687129  0.52747277     0.65400
H1357       H  0.85111927  0.73827667  0.48897075     0.18300
N1358       N  0.75753119  0.72969427  0.44099821     0.75900
H1359       H  0.73767174  0.75018487  0.47945376     0.09800
C1360       C  0.79278994  0.81421667  0.52272974     0.03500
C1361       C  0.78578596  0.83275044  0.54054387    -0.05200
C1362       C  0.75668000  0.81285262  0.55636791    -0.23600
C1363       C  0.73389653  0.77354199  0.55404526     0.12800
C1364       C  0.74136313  0.75471307  0.53634038    -0.12700
N1365       N  0.82196351  0.83583165  0.50652564     0.64400
H1366       H  0.80319255  0.86303794  0.54199372     0.12300
N1367       N  0.70487810  0.75221866  0.57033829     0.61100
H1368       H  0.72457788  0.72438331  0.53500327     0.08400
O1369       O  0.76507061  0.75763856  0.42840551    -0.40400
O1370       O  0.72956633  0.69804771  0.43628971    -0.39600
O1371       O  0.82052432  0.72999733  0.54142038    -0.39600
O1372       O  0.86117645  0.78681358  0.53045336    -0.37300
O1373       O  0.67128678  0.74235251  0.56551311    -0.38200
O1374       O  0.71171131  0.73707332  0.58711268    -0.34300
O1375       O  0.81391656  0.84623570  0.48801078    -0.35700
O1376       O  0.85585329  0.85079554  0.51266310    -0.40000
C1377       C  0.38135016  0.30764906  0.36251554    -0.13700
C1378       C  0.36592903  0.31954393  0.34519161     0.16700
C1379       C  0.33145006  0.29312773  0.33527778     0.03000
C1380       C  0.31273728  0.25572393  0.34293012    -0.12200
C1381       C  0.32787773  0.24342334  0.36034888    -0.03300
C1382       C  0.36294732  0.27001975  0.37001750     0.02200
C1383       C  0.38708029  0.35889475  0.33647954     0.09000
N1384       N  0.31475252  0.30410384  0.31760523     0.65400
H1385       H  0.28601905  0.23625487  0.33515679     0.18300
N1386       N  0.38044249  0.25948051  0.38741630     0.75900
H1387       H  0.40818930  0.32756614  0.36998623     0.09800
C1388       C  0.39217704  0.38977626  0.34986781     0.03500
C1389       C  0.41096263  0.42628845  0.34055401    -0.05200
C1390       C  0.42536073  0.43290807  0.31795184    -0.23600
C1391       C  0.42164285  0.40183538  0.30501284     0.12800
C1392       C  0.40234929  0.36543770  0.31425753    -0.12700
N1393       N  0.37728822  0.38432490  0.37267881     0.64400
H1394       H  0.41345576  0.44938804  0.35092141     0.12300
N1395       N  0.43801370  0.40665372  0.28263714     0.61100
H1396       H  0.39946764  0.34203627  0.30402293     0.08400
O1397       O  0.37804699  0.26687804  0.40824021    -0.40400
O1398       O  0.40377831  0.24945589  0.38166897    -0.39600
O1399       O  0.31718115  0.29632538  0.29686651    -0.39600
O1400       O  0.29270330  0.31592711  0.32299334    -0.37300
O1401       O  0.47142501  0.41343879  0.28075920    -0.38200
O1402       O  0.41732935  0.39727759  0.26503292    -0.34300
O1403       O  0.39889578  0.39164994  0.38969016    -0.35700
O1404       O  0.34453175  0.37883171  0.37579414    -0.40000
C1405       C  0.33154643  0.05045936  0.33429374    -0.13700
C1406       C  0.36517886  0.05708137  0.34458486     0.16700
C1407       C  0.37888376  0.08144459  0.36375641     0.03000
C1408       C  0.35848691  0.09787404  0.37253143    -0.12200
C1409       C  0.32489689  0.09145542  0.36215974    -0.03300
C1410       C  0.31146677  0.06735632  0.34282242     0.02200
C1411       C  0.38504610  0.03791432  0.33503794     0.09000
N1412       N  0.41442746  0.09143512  0.37372176     0.65400
H1413       H  0.36960591  0.11668703  0.38716037     0.18300
N1414       N  0.27652395  0.05821587  0.33233059     0.75900
H1415       H  0.32052142  0.03159647  0.31968025     0.09800
C1416       C  0.38641062  0.00877805  0.34708182     0.03500
C1417       C  0.40312287  0.98964498  0.33684717    -0.05200
C1418       C  0.41859672  0.99869393  0.31453815    -0.23600
C1419       C  0.41749467  0.02816828  0.30261140     0.12800
C1420       C  0.40082724  0.04734596  0.31288816    -0.12700
N1421       N  0.36927499  0.99696353  0.36924600     0.64400
H1422       H  0.40363497  0.96724317  0.34639125     0.12300
N1423       N  0.43123741  0.03761822  0.27955914     0.61100
H1424       H  0.39955032  0.06932004  0.30331467     0.08400
O1425       O  0.24680151  0.02945316  0.33896453    -0.40400
O1426       O  0.27642081  0.07412517  0.31377936    -0.39600
O1427       O  0.44402452  0.11652992  0.36420405    -0.39600
O1428       O  0.41584086  0.08209328  0.39422581    -0.37300
O1429       O  0.40973230  0.02018854  0.26296500    -0.38200
O1430       O  0.46187493  0.06742209  0.27572713    -0.34300
O1431       O  0.33408774  0.97628690  0.37068066    -0.35700
O1432       O  0.38934905  0.00045233  0.38651220    -0.40000
C1433       C  0.02375217  0.91278979  0.36189177    -0.13700
C1434       C  0.05545026  0.90848542  0.36084492     0.16700
C1435       C  0.05072520  0.87203337  0.36260556     0.03000
C1436       C  0.01469252  0.84081952  0.36605141    -0.12200
C1437       C  0.98339178  0.84563465  0.36849365    -0.03300
C1438       C  0.98806125  0.88195097  0.36595082     0.02200
C1439       C  0.09285723  0.94297745  0.36252617     0.09000
N1440       N  0.08241756  0.86656635  0.36204441     0.65400
H1441       H  0.01153926  0.81317416  0.36827896     0.18300
N1442       N  0.95699963  0.88822680  0.36850907     0.75900
H1443       H  0.02704550  0.94066722  0.36113265     0.09800
C1444       C  0.10663619  0.97083481  0.34520887     0.03500
C1445       C  0.13780396  0.00648339  0.34964765    -0.05200
C1446       C  0.15472329  0.01523182  0.37144870    -0.23600
C1447       C  0.14169670  0.98696002  0.38844827     0.12800
C1448       C  0.11129472  0.95114665  0.38379564    -0.12700
N1449       N  0.08800721  0.96396217  0.32352364     0.64400
H1450       H  0.14728453  0.02807434  0.33651655     0.12300
N1451       N  0.15785364  0.99470199  0.41093092     0.61100
H1452       H  0.10052830  0.93029300  0.39740258     0.08400
O1453       O  0.95148331  0.89941526  0.38760557    -0.40400
O1454       O  0.94021247  0.89006289  0.35083029    -0.39600
O1455       O  0.09397922  0.85962415  0.38048418    -0.39600
O1456       O  0.09400118  0.86150673  0.34297106    -0.37300
O1457       O  0.18884636  0.99602773  0.41412681    -0.38200
O1458       O  0.13786489  0.99243458  0.42804190    -0.34300
O1459       O  0.06569071  0.97612188  0.31993240    -0.35700
O1460       O  0.09911489  0.95234069  0.30680994    -0.40000
C1461       C  0.05982497  0.68882561  0.64044004    -0.13700
C1462       C  0.05938890  0.68521701  0.66446828     0.16700
C1463       C  0.07806665  0.71783410  0.67807727     0.03000
C1464       C  0.09642006  0.75333479  0.66762564    -0.12200
C1465       C  0.09653379  0.75731175  0.64353504    -0.03300
C1466       C  0.07809761  0.72431948  0.62988497     0.02200
C1467       C  0.03950659  0.64719546  0.67504994     0.09000
N1468       N  0.07720568  0.71539401  0.70263069     0.65400
H1469       H  0.11007957  0.77794919  0.67857193     0.18300
N1470       N  0.07696601  0.72616633  0.60534536     0.75900
H1471       H  0.04581698  0.66386570  0.62978927     0.09800
C1472       C  0.00051667  0.62365951  0.67237027     0.03500
C1473       C  0.98255445  0.58753662  0.68191390    -0.05200
C1474       C  0.00268506  0.57389944  0.69430424    -0.23600
C1475       C  0.04195362  0.59747616  0.69678134     0.12800
C1476       C  0.05988849  0.63382884  0.68728603    -0.12700
N1477       N  0.97855652  0.63652196  0.66058241     0.64400
H1478       H  0.95240882  0.57032929  0.67991577     0.12300
N1479       N  0.06430793  0.58444455  0.70788845     0.61100
H1480       H  0.09003531  0.65142978  0.68903079     0.08400
O1481       O  0.10106887  0.72327203  0.59337314    -0.40400
O1482       O  0.04841189  0.72386921  0.59570756    -0.39600
O1483       O  0.10638703  0.72175534  0.71344521    -0.39600
O1484       O  0.04943650  0.71284608  0.71354188    -0.37300
O1485       O  0.07612550  0.56627003  0.69644053    -0.38200
O1486       O  0.07776580  0.59680932  0.72757906    -0.34300
O1487       O  0.96517447  0.62331715  0.64100529    -0.35700
O1488       O  0.96714350  0.65568375  0.67131472    -0.40000
C1489       C  0.30336027  0.96717807  0.65248182    -0.13700
C1490       C  0.31834933  0.94538221  0.66077192     0.16700
C1491       C  0.29606346  0.90588546  0.66047315     0.03000
C1492       C  0.25933215  0.88874713  0.65182171    -0.12200
C1493       C  0.24390842  0.91051135  0.64407898    -0.03300
C1494       C  0.26643365  0.95012054  0.64417576     0.02200
C1495       C  0.35617072  0.96435389  0.67134936     0.09000
N1496       N  0.30961805  0.88296576  0.67018410     0.65400
H1497       H  0.24227389  0.85835198  0.65205223     0.18300
N1498       N  0.25252946  0.97332946  0.63533751     0.75900
H1499       H  0.32032837  0.99758605  0.65266509     0.09800
C1500       C  0.38841780  0.97051586  0.65913026     0.03500
C1501       C  0.42371353  0.98897493  0.66988030    -0.05200
C1502       C  0.42751545  0.00169212  0.69276533    -0.23600
C1503       C  0.39504277  0.99611657  0.70471754     0.12800
C1504       C  0.35987210  0.97732874  0.69401534    -0.12700
N1505       N  0.38586146  0.95904832  0.63565008     0.64400
H1506       H  0.44820409  0.99335370  0.66027070     0.12300
N1507       N  0.39749523  0.01124147  0.72725346     0.61100
H1508       H  0.33529227  0.97339965  0.70334222     0.08400
O1509       O  0.25334246  0.97892121  0.61392548    -0.40400
O1510       O  0.24579708  0.99323493  0.64895841    -0.39600
O1511       O  0.30623735  0.87641356  0.69154077    -0.39600
O1512       O  0.31883668  0.86429192  0.65713930    -0.37300
O1513       O  0.40542410  0.04502056  0.72948077    -0.38200
O1514       O  0.38546263  0.98945980  0.74438437    -0.34300
O1515       O  0.39161649  0.98233449  0.61979875    -0.35700
O1516       O  0.38523962  0.92873541  0.63089286    -0.40000
C1517       C  0.87938623  0.82708972  0.65175874    -0.13700
C1518       C  0.91575365  0.85564240  0.64584030     0.16700
C1519       C  0.92120992  0.89073444  0.63857248     0.03000
C1520       C  0.89053044  0.89650550  0.63676511    -0.12200
C1521       C  0.85375154  0.86768543  0.64177573    -0.03300
C1522       C  0.84843863  0.83287118  0.64990773     0.02200
C1523       C  0.94747157  0.84800018  0.64510912     0.09000
N1524       N  0.95749458  0.92009344  0.63153955     0.65400
H1525       H  0.89551369  0.92354256  0.63061688     0.18300
N1526       N  0.81173166  0.80248945  0.65508006     0.75900
H1527       H  0.87487318  0.79989659  0.65719780     0.09800
C1528       C  0.97560431  0.86176699  0.66218811     0.03500
C1529       C  0.00871913  0.86037211  0.65862494    -0.05200
C1530       C  0.01424520  0.84552582  0.63817146    -0.23600
C1531       C  0.98493281  0.82910576  0.62195396     0.12800
C1532       C  0.95194262  0.83068256  0.62545303    -0.12700
N1533       N  0.97173805  0.87892129  0.68265506     0.64400
H1534       H  0.03127738  0.87348482  0.67105760     0.12300
N1535       N  0.98922426  0.81225975  0.60139502     0.61100
H1536       H  0.93035414  0.81974893  0.61232571     0.08400
O1537       O  0.80032241  0.79652790  0.67566564    -0.40400
O1538       O  0.79340345  0.77825591  0.63983758    -0.39600
O1539       O  0.96933458  0.91929548  0.61159141    -0.39600
O1540       O  0.97406748  0.94993773  0.64324191    -0.37300
O1541       O  0.99852905  0.78728433  0.60266691    -0.38200
O1542       O  0.98421708  0.82261701  0.58191879    -0.34300
O1543       O  0.96055714  0.85989270  0.70095407    -0.35700
O1544       O  0.98656422  0.91422547  0.68364846    -0.40000
C1545       C  0.21457199  0.02838165  0.49443254    -0.13700
C1546       C  0.24549073  0.02426137  0.49993131     0.16700
C1547       C  0.27741056  0.04079320  0.48557133     0.03000
C1548       C  0.27827575  0.06204488  0.46639550    -0.12200
C1549       C  0.24745792  0.06667070  0.46118169    -0.03300
C1550       C  0.21536875  0.04976006  0.47555902     0.02200
C1551       C  0.24203035  0.00095052  0.52025487     0.09000
N1552       N  0.30922023  0.03669883  0.49041251     0.65400
H1553       H  0.30298814  0.07478635  0.45548323     0.18300
N1554       N  0.18415480  0.05562246  0.47209136     0.75900
H1555       H  0.18965786  0.01526977  0.50517456     0.09800
C1556       C  0.23291267  0.00979791  0.54194724     0.03500
C1557       C  0.21662282  0.98199050  0.55883780    -0.05200
C1558       C  0.20981238  0.94550670  0.55465653    -0.23600
C1559       C  0.22259605  0.93767054  0.53400367     0.12800
C1560       C  0.23865384  0.96547990  0.51689438    -0.12700
N1561       N  0.23700989  0.04597762  0.54628369     0.64400
H1562       H  0.20692448  0.98823494  0.57472832     0.12300
N1563       N  0.21554863  0.90057209  0.52914823     0.61100
H1564       H  0.24511899  0.95819730  0.50022869     0.08400
O1565       O  0.15138088  0.02764358  0.47101763    -0.40400
O1566       O  0.18821225  0.08778453  0.47564250    -0.39600
O1567       O  0.31602832  0.01567924  0.47785320    -0.39600
O1568       O  0.33392254  0.05908176  0.50426142    -0.37300
O1569       O  0.18534354  0.87722938  0.51941495    -0.38200
O1570       O  0.24174150  0.89317852  0.53115503    -0.34300
O1571       O  0.20822684  0.04936619  0.54804810    -0.35700
O1572       O  0.26854280  0.07283737  0.55231705    -0.40000
C1573       C  0.03136186  0.80360851  0.51179760    -0.13700
C1574       C  0.02401428  0.76700927  0.50737000     0.16700
C1575       C  0.03965107  0.75076535  0.52173998     0.03000
C1576       C  0.06203209  0.77135682  0.54051198    -0.12200
C1577       C  0.06853250  0.80771313  0.54514191    -0.03300
C1578       C  0.05357113  0.82408114  0.53035016     0.02200
C1579       C  0.99945382  0.74742820  0.48760254     0.09000
N1580       N  0.03344424  0.71383741  0.51738428     0.65400
H1581       H  0.07381620  0.75877280  0.55166150     0.18300
N1582       N  0.06223920  0.86219453  0.53331045     0.75900
H1583       H  0.01985860  0.81647512  0.50062163     0.09800
C1584       C  0.96067248  0.72319192  0.49093454     0.03500
C1585       C  0.93572254  0.71665403  0.47278743    -0.05200
C1586       C  0.94894309  0.73473339  0.45147288    -0.23600
C1587       C  0.98807409  0.75551548  0.44748232     0.12800
C1588       C  0.01293346  0.76154594  0.46552719    -0.12700
N1589       N  0.94591574  0.70910898  0.51333391     0.64400
H1590       H  0.90580753  0.70054573  0.47615715     0.12300
N1591       N  0.00296246  0.77269742  0.42566158     0.61100
H1592       H  0.04275643  0.78021488  0.46283993     0.08400
O1593       O  0.09283278  0.88854136  0.52556481    -0.40400
O1594       O  0.03689106  0.86905998  0.53966751    -0.39600
O1595       O  0.05712456  0.70996311  0.50559544    -0.39600
O1596       O  0.00990737  0.68671205  0.52948224    -0.37300
O1597       O  0.01508196  0.80741875  0.42302914    -0.38200
O1598       O  0.01072412  0.75515225  0.41079000    -0.34300
O1599       O  0.93818640  0.72853633  0.52674309    -0.35700
O1600       O  0.93422873  0.67500096  0.51797943    -0.40000
C1601       C  0.39044622  0.40474138  0.65658864    -0.13700
C1602       C  0.35996807  0.39348591  0.67159224     0.16700
C1603       C  0.36649415  0.40007958  0.69536791     0.03000
C1604       C  0.40315069  0.41755155  0.70380924    -0.12200
C1605       C  0.43395514  0.42836001  0.68896063    -0.03300
C1606       C  0.42723520  0.42180757  0.66500649     0.02200
C1607       C  0.32133105  0.37178270  0.66258893     0.09000
N1608       N  0.33602308  0.38874223  0.71119833     0.65400
H1609       H  0.40731950  0.42209838  0.72220299     0.18300
N1610       N  0.45702170  0.43039436  0.64908360     0.75900
H1611       H  0.38554528  0.39882303  0.63834152     0.09800
C1612       C  0.30679980  0.38745093  0.64700220     0.03500
C1613       C  0.26939277  0.36638175  0.63987034    -0.05200
C1614       C  0.24619219  0.32923953  0.64757622    -0.23600
C1615       C  0.26181950  0.31294076  0.66212118     0.12800
C1616       C  0.29885777  0.33444476  0.66967608    -0.12700
N1617       N  0.32953003  0.42485483  0.63850482     0.64400
H1618       H  0.25853860  0.37934159  0.62830167     0.12300
N1619       N  0.24098085  0.27442191  0.66901317     0.61100
H1620       H  0.31036116  0.32172580  0.68095804     0.08400
O1621       O  0.46850726  0.45864317  0.63606978    -0.40400
O1622       O  0.46669764  0.40619319  0.64504284    -0.39600
O1623       O  0.32591113  0.35997488  0.72355948    -0.39600
O1624       O  0.32377015  0.41078604  0.71562082    -0.37300
O1625       O  0.24051088  0.24942206  0.65609787    -0.38200
O1626       O  0.22968615  0.26637912  0.68955041    -0.34300
O1627       O  0.34474884  0.42990248  0.61893941    -0.35700
O1628       O  0.32827153  0.45169386  0.64825899    -0.40000
C1629       C  0.01536267  0.38919399  0.67082426    -0.13700
C1630       C  0.04401819  0.39010016  0.68434816     0.16700
C1631       C  0.05255470  0.40885772  0.70572691     0.03000
C1632       C  0.03190212  0.42558521  0.71333842    -0.12200
C1633       C  0.00333660  0.42509301  0.69972835    -0.03300
C1634       C  0.99523288  0.40656576  0.67816877     0.02200
C1635       C  0.06527024  0.37239093  0.67518375     0.09000
N1636       N  0.08353647  0.41323104  0.71923536     0.65400
H1637       H  0.03914680  0.44006533  0.72975486     0.18300
N1638       N  0.96645556  0.40469179  0.66354282     0.75900
H1639       H  0.00862814  0.37492913  0.65432695     0.09800
C1640       C  0.06537667  0.34184518  0.68625872     0.03500
C1641       C  0.08434694  0.32496160  0.67613007    -0.05200
C1642       C  0.10214394  0.33699019  0.65460749    -0.23600
C1643       C  0.10224456  0.36786417  0.64373101     0.12800
C1644       C  0.08421057  0.38532645  0.65415646    -0.12700
N1645       N  0.04382356  0.32561851  0.70670556     0.64400
H1646       H  0.08319343  0.30084401  0.68452602     0.12300
N1647       N  0.12031249  0.38181419  0.62201629     0.61100
H1648       H  0.08439010  0.40881557  0.64552565     0.08400
O1649       O  0.93405073  0.37606710  0.66419032    -0.40400
O1650       O  0.97517694  0.42780166  0.64717824    -0.39600
O1651       O  0.11658486  0.43583093  0.71261946    -0.39600
O1652       O  0.07803483  0.40117278  0.73967025    -0.37300
O1653       O  0.10091154  0.37237041  0.60385478    -0.38200
O1654       O  0.15367279  0.40883830  0.62145399    -0.34300
O1655       O  0.00846931  0.30685414  0.70540599    -0.35700
O1656       O  0.05981304  0.32300597  0.72455996    -0.40000
C1657       C  0.95234779  0.13571436  0.65561863    -0.13700
C1658       C  0.94528725  0.09868304  0.65321272     0.16700
C1659       C  0.97560427  0.09230043  0.64981949     0.03000
C1660       C  0.01185145  0.12279087  0.64722411    -0.12200
C1661       C  0.01878954  0.15990842  0.64797944    -0.03300
C1662       C  0.98905601  0.16639859  0.65350061     0.02200
C1663       C  0.90635624  0.06706400  0.65117046     0.09000
N1664       N  0.96963721  0.05508696  0.64684464     0.65400
H1665       H  0.03449840  0.11734723  0.64325766     0.18300
N1666       N  0.99526779  0.20375181  0.65569264     0.75900
H1667       H  0.92918071  0.14079338  0.65840612     0.09800
C1668       C  0.89068269  0.03833128  0.66778256     0.03500
C1669       C  0.85838167  0.00428552  0.66251562    -0.05200
C1670       C  0.84105126  0.99826747  0.64083905    -0.23600
C1671       C  0.85480768  0.02865414  0.62510564     0.12800
C1672       C  0.88741966  0.06253754  0.63034390    -0.12700
N1673       N  0.90786446  0.04297379  0.68982124     0.64400
H1674       H  0.84793206  0.98191189  0.67516065     0.12300
N1675       N  0.83703146  0.02523701  0.60340143     0.61100
H1676       H  0.89919350  0.08469467  0.61753662     0.08400
O1677       O  0.00414754  0.21985327  0.67504547    -0.40400
O1678       O  0.98440184  0.21723743  0.63997984    -0.39600
O1679       O  0.95872126  0.03895784  0.62759462    -0.39600
O1680       O  0.98266298  0.04193755  0.66147874    -0.37300
O1681       O  0.81195931  0.03429340  0.60177239    -0.38200
O1682       O  0.85096364  0.02001495  0.58533798    -0.34300
O1683       O  0.90288503  0.06201839  0.70505713    -0.35700
O1684       O  0.92066765  0.02190591  0.69557425    -0.40000
C1685       C  0.12779465  0.02929843  0.64782205    -0.13700
C1686       C  0.16103123  0.05964889  0.63921637     0.16700
C1687       C  0.18908853  0.05330804  0.62997797     0.03000
C1688       C  0.18204204  0.01650512  0.62741305    -0.12200
C1689       C  0.14796177  0.98599437  0.63481896    -0.03300
C1690       C  0.12112059  0.99249756  0.64582035     0.02200
C1691       C  0.16275960  0.09617381  0.63645840     0.09000
N1692       N  0.22465543  0.08394152  0.62304260     0.65400
H1693       H  0.20295071  0.01165785  0.61920073     0.18300
N1694       N  0.08546726  0.96197176  0.65276344     0.75900
H1695       H  0.10593132  0.03397635  0.65471752     0.09800
C1696       C  0.15912066  0.10836974  0.61447381     0.03500
C1697       C  0.15544709  0.14020260  0.61235688    -0.05200
C1698       C  0.15375026  0.15968832  0.63186478    -0.23600
C1699       C  0.15900435  0.14824489  0.65390112     0.12800
C1700       C  0.16360936  0.11672382  0.65593252    -0.12700
N1701       N  0.15532881  0.08665861  0.59430686     0.64400
H1702       H  0.15134118  0.14805210  0.59526397     0.12300
N1703       N  0.15904977  0.16753917  0.67442447     0.61100
H1704       H  0.16632642  0.10731895  0.67287488     0.08400
O1705       O  0.05851495  0.94850779  0.63868471    -0.40400
O1706       O  0.07900511  0.95382922  0.67384492    -0.39600
O1707       O  0.24869614  0.10278006  0.63824132    -0.39600
O1708       O  0.23489047  0.08674093  0.60228872    -0.37300
O1709       O  0.12815018  0.15948314  0.68374118    -0.38200
O1710       O  0.18871458  0.18406364  0.68621058    -0.34300
O1711       O  0.12451631  0.05706315  0.59045775    -0.35700
O1712       O  0.17909295  0.10103279  0.57825244    -0.40000
C1713       C  0.25259367  0.27995136  0.52918860    -0.13700
C1714       C  0.23219116  0.25777640  0.51030248     0.16700
C1715       C  0.19272557  0.24043514  0.51048457     0.03000
C1716       C  0.17440666  0.24516958  0.52937995    -0.12200
C1717       C  0.19436515  0.26583652  0.54885579    -0.03300
C1718       C  0.23405865  0.28413157  0.54843126     0.02200
C1719       C  0.25111720  0.24802019  0.49201203     0.09000
N1720       N  0.17059172  0.21486182  0.49264532     0.65400
H1721       H  0.14399233  0.23082207  0.52921431     0.18300
N1722       N  0.25578957  0.30477819  0.56790728     0.75900
H1723       H  0.28289513  0.29273789  0.52939377     0.09800
C1724       C  0.25086356  0.25789835  0.46875420     0.03500
C1725       C  0.25835665  0.23891713  0.45125261    -0.05200
C1726       C  0.26660653  0.21058358  0.45668577    -0.23600
C1727       C  0.27050326  0.20342655  0.47994853     0.12800
C1728       C  0.26269398  0.22209991  0.49740017    -0.12700
N1729       N  0.24154373  0.28597295  0.46266876     0.64400
H1730       H  0.25543217  0.24467685  0.43340232     0.12300
N1731       N  0.28050104  0.17584839  0.48607840     0.61100
H1732       H  0.26312130  0.21438568  0.51519242     0.08400
O1733       O  0.27228377  0.34024073  0.56775270    -0.40400
O1734       O  0.26395166  0.28820052  0.58317063    -0.39600
O1735       O  0.16821183  0.18302899  0.49139474    -0.39600
O1736       O  0.14791919  0.22085970  0.48134564    -0.37300
O1737       O  0.25602216  0.14494754  0.49461015    -0.38200
O1738       O  0.31474702  0.18546972  0.48772310    -0.34300
O1739       O  0.26672325  0.32017914  0.46340224    -0.35700
O1740       O  0.21149666  0.27663525  0.45192135    -0.40000
C1741       C  0.95158497  0.30655783  0.36636418    -0.13700
C1742       C  0.93498551  0.31217361  0.34674626     0.16700
C1743       C  0.90252569  0.28110920  0.33748197     0.03000
C1744       C  0.88728629  0.24557036  0.34787636    -0.12200
C1745       C  0.90341900  0.24025267  0.36774899    -0.03300
C1746       C  0.93612344  0.27108239  0.37688412     0.02200
C1747       C  0.95323336  0.34995716  0.33542639     0.09000
N1748       N  0.88384859  0.28550344  0.31803256     0.65400
H1749       H  0.86203392  0.22222355  0.34074932     0.18300
N1750       N  0.95528437  0.26622512  0.39592525     0.75900
H1751       H  0.97730117  0.32962324  0.37320875     0.09800
C1752       C  0.96185163  0.38291960  0.34783181     0.03500
C1753       C  0.98144276  0.41825118  0.33711178    -0.05200
C1754       C  0.99257463  0.42177279  0.31390506    -0.23600
C1755       C  0.98375600  0.38869646  0.30143958     0.12800
C1756       C  0.96436674  0.35339237  0.31224262    -0.12700
N1757       N  0.95011636  0.38091693  0.37122620     0.64400
H1758       H  0.98757217  0.44307979  0.34699514     0.12300
N1759       N  0.99620309  0.39054039  0.27821765     0.61100
H1760       H  0.95905708  0.32858344  0.30262511     0.08400
O1761       O  0.95431153  0.27933672  0.41542002    -0.40400
O1762       O  0.97780178  0.25423877  0.39243430    -0.39600
O1763       O  0.88463336  0.27113755  0.29895714    -0.39600
O1764       O  0.86103100  0.29725573  0.32097375    -0.37300
O1765       O  0.02854754  0.39536088  0.27435268    -0.38200
O1766       O  0.97300971  0.38125649  0.26190464    -0.34300
O1767       O  0.97425596  0.39286173  0.38710370    -0.35700
O1768       O  0.91706479  0.37367582  0.37555269    -0.40000
C1769       C  0.61205771  0.02757924  0.35158242    -0.13700
C1770       C  0.64311643  0.05103380  0.33776197     0.16700
C1771       C  0.63712778  0.05575350  0.31441608     0.03000
C1772       C  0.60069986  0.03648241  0.30525901    -0.12200
C1773       C  0.56956035  0.01162496  0.31877127    -0.03300
C1774       C  0.57560452  0.00799312  0.34241445     0.02200
C1775       C  0.68157919  0.06762058  0.34764573     0.09000
N1776       N  0.66797549  0.07772876  0.29932021     0.65400
H1777       H  0.59714702  0.03990810  0.28711271     0.18300
N1778       N  0.54546594  0.98342856  0.35723208     0.75900
H1779       H  0.61629965  0.02366069  0.36955036     0.09800
C1780       C  0.70530819  0.10676388  0.35060140     0.03500
C1781       C  0.74113338  0.12070136  0.36036732    -0.05200
C1782       C  0.75394434  0.09626835  0.36726883    -0.23600
C1783       C  0.73014701  0.05715848  0.36424389     0.12800
C1784       C  0.69444133  0.04327836  0.35453263    -0.12700
N1785       N  0.69296803  0.13260436  0.34460594     0.64400
H1786       H  0.75899281  0.15077604  0.36261125     0.12300
N1787       N  0.74092111  0.03100398  0.37224328     0.61100
H1788       H  0.67642052  0.01316463  0.35255273     0.08400
O1789       O  0.53055130  0.99683998  0.37035100    -0.40400
O1790       O  0.53886915  0.95025726  0.36041114    -0.39600
O1791       O  0.68784796  0.06430718  0.29211311    -0.39600
O1792       O  0.67008095  0.10604604  0.28938001    -0.37300
O1793       O  0.73417784  0.01975496  0.39283231    -0.38200
O1794       O  0.75077054  0.01432176  0.35797611    -0.34300
O1795       O  0.66993827  0.13568164  0.35754892    -0.35700
O1796       O  0.71069102  0.15743145  0.32953390    -0.40000
C1797       C  0.81205082  0.94236890  0.40003471    -0.13700
C1798       C  0.83403722  0.93753322  0.38330816     0.16700
C1799       C  0.85413232  0.96651699  0.36723817     0.03000
C1800       C  0.85511876  0.00092408  0.36965706    -0.12200
C1801       C  0.83657853  0.00724763  0.38802597    -0.03300
C1802       C  0.81328158  0.97688509  0.40259768     0.02200
C1803       C  0.83870886  0.90395055  0.38452724     0.09000
N1804       N  0.87612555  0.96262870  0.34950473     0.65400
H1805       H  0.87273729  0.02359929  0.35801648     0.18300
N1806       N  0.79119216  0.98073462  0.42028151     0.75900
H1807       H  0.79513516  0.91971549  0.41186676     0.09800
C1808       C  0.85074273  0.89529224  0.40516433     0.03500
C1809       C  0.85524851  0.86387740  0.40628132    -0.05200
C1810       C  0.84929224  0.84099465  0.38692658    -0.23600
C1811       C  0.83731456  0.84959043  0.36617992     0.12800
C1812       C  0.83171431  0.88066707  0.36522297    -0.12700
N1813       N  0.86078295  0.91948732  0.42480225     0.64400
H1814       H  0.86530121  0.85852521  0.42226607     0.12300
N1815       N  0.83006580  0.82680040  0.34612266     0.61100
H1816       H  0.82189371  0.88661438  0.34936083     0.08400
O1817       O  0.80276136  0.98627886  0.44080035    -0.40400
O1818       O  0.75737685  0.97092780  0.41625244    -0.39600
O1819       O  0.86428531  0.95688770  0.32903817    -0.39600
O1820       O  0.90991458  0.97216690  0.35341671    -0.37300
O1821       O  0.79731407  0.79987892  0.34251466    -0.38200
O1822       O  0.85407296  0.83783314  0.33012089    -0.34300
O1823       O  0.84092948  0.90824432  0.44280555    -0.35700
O1824       O  0.89271683  0.94874961  0.42558841    -0.40000
C1825       C  0.99313899  0.23221620  0.54189566    -0.13700
C1826       C  0.00915236  0.25350867  0.52200238     0.16700
C1827       C  0.04735785  0.28143271  0.52203096     0.03000
C1828       C  0.06987218  0.28440805  0.54085241    -0.12200
C1829       C  0.05458861  0.26052257  0.56000676    -0.03300
C1830       C  0.01535091  0.23572352  0.56094133     0.02200
C1831       C  0.98711846  0.24122483  0.50051650     0.09000
N1832       N  0.06355196  0.30665858  0.50301875     0.65400
H1833       H  0.09965395  0.30459667  0.54006465     0.18300
N1834       N  0.99738616  0.21426023  0.58109795     0.75900
H1835       H  0.96353859  0.21124547  0.54219721     0.09800
C1836       C  0.99718748  0.22427091  0.48291112     0.03500
C1837       C  0.97289711  0.20709010  0.46446329    -0.05200
C1838       C  0.93747705  0.20450460  0.46358545    -0.23600
C1839       C  0.92855250  0.22375957  0.48044310     0.12800
C1840       C  0.95329226  0.24162222  0.49884512    -0.12700
N1841       N  0.02974568  0.22025483  0.48483268     0.64400
H1842       H  0.98083769  0.19318112  0.45162978     0.12300
N1843       N  0.89429282  0.22468552  0.47957166     0.61100
H1844       H  0.94553685  0.25480826  0.51229341     0.08400
O1845       O  0.99265724  0.18155775  0.58314933    -0.40400
O1846       O  0.97766560  0.22350503  0.59311157    -0.39600
O1847       O  0.05477106  0.33168391  0.49973173    -0.39600
O1848       O  0.09147508  0.30877347  0.49253163    -0.37300
O1849       O  0.87041922  0.20955017  0.49548689    -0.38200
O1850       O  0.89174988  0.24732613  0.46603184    -0.34300
O1851       O  0.03007013  0.19773709  0.49949187    -0.35700
O1852       O  0.05407689  0.23256016  0.46899760    -0.40000
C1853       C  0.71641984  0.98051203  0.53797033    -0.13700
C1854       C  0.73682649  0.98309182  0.51790739     0.16700
C1855       C  0.75275432  0.95977137  0.51569451     0.03000
C1856       C  0.74940933  0.93567757  0.53365529    -0.12200
C1857       C  0.73123601  0.93469506  0.55439822    -0.03300
C1858       C  0.71323003  0.95629396  0.55613194     0.02200
C1859       C  0.74733508  0.01425961  0.50124839     0.09000
N1860       N  0.77591115  0.96311372  0.49637665     0.65400
H1861       H  0.76318516  0.91915051  0.53181834     0.18300
N1862       N  0.69400846  0.95606574  0.57670963     0.75900
H1863       H  0.70447479  0.99865388  0.53998069     0.09800
C1864       C  0.73533733  0.00774856  0.47808905     0.03500
C1865       C  0.75458981  0.03592175  0.46146331    -0.05200
C1866       C  0.78566639  0.07057537  0.46769384    -0.23600
C1867       C  0.79493446  0.07823089  0.49122133     0.12800
C1868       C  0.77565201  0.05022119  0.50773857    -0.12700
N1869       N  0.70445916  0.97237670  0.47115569     0.64400
H1870       H  0.74693557  0.02973227  0.44349091     0.12300
N1871       N  0.82478248  0.11396055  0.49857488     0.61100
H1872       H  0.78487568  0.05571313  0.52550626     0.08400
O1873       O  0.65866572  0.93647469  0.57754937    -0.40400
O1874       O  0.71126862  0.98059469  0.59200130    -0.39600
O1875       O  0.80871045  0.99104733  0.49508250    -0.39600
O1876       O  0.76698448  0.93487655  0.48370874    -0.37300
O1877       O  0.81693699  0.13537308  0.50993906    -0.38200
O1878       O  0.85801585  0.11990903  0.49873643    -0.34300
O1879       O  0.67188479  0.96816649  0.47075162    -0.35700
O1880       O  0.71054223  0.94866738  0.46109490    -0.40000
C1881       C  0.03631112  0.14535886  0.39599850    -0.13700
C1882       C  0.05388233  0.16200518  0.37515036     0.16700
C1883       C  0.03360593  0.16968472  0.35856316     0.03000
C1884       C  0.99658237  0.16133546  0.36331850    -0.12200
C1885       C  0.97865531  0.14389641  0.38411354    -0.03300
C1886       C  0.99917779  0.13578815  0.40050596     0.02200
C1887       C  0.09198745  0.16733473  0.37094474     0.09000
N1888       N  0.04999694  0.18547516  0.33676211     0.65400
H1889       H  0.98148155  0.16752039  0.35039864     0.18300
N1890       N  0.98264427  0.11688863  0.42166598     0.75900
H1891       H  0.05117025  0.13831886  0.40864507     0.09800
C1892       C  0.12176767  0.18943300  0.38609508     0.03500
C1893       C  0.15280219  0.18405787  0.38740200    -0.05200
C1894       C  0.15522039  0.15719442  0.37356534    -0.23600
C1895       C  0.12736456  0.13809331  0.35660415     0.12800
C1896       C  0.09600378  0.14318153  0.35552907    -0.12700
N1897       N  0.11976471  0.21588354  0.40123697     0.64400
H1898       H  0.17431212  0.19978995  0.40010805     0.12300
N1899       N  0.12819541  0.11033618  0.34213003     0.61100
H1900       H  0.07316884  0.12563893  0.34401126     0.08400
O1901       O  0.96678494  0.08146935  0.42245519    -0.40400
O1902       O  0.99130172  0.13535738  0.44021763    -0.39600
O1903       O  0.04340884  0.16403642  0.31967740    -0.39600
O1904       O  0.06422311  0.22037609  0.33355623    -0.37300
O1905       O  0.13698486  0.11767564  0.32117540    -0.38200
O1906       O  0.11360705  0.07680450  0.34908455    -0.34300
O1907       O  0.11450588  0.20890702  0.42250974    -0.35700
O1908       O  0.13017536  0.24869428  0.39411984    -0.40000
loop_ 
_geom_bond_atom_site_label_1 
_geom_bond_atom_site_label_2 
_geom_bond_distance 
_geom_bond_site_symmetry_2 
_ccdc_geom_bond_type 
O1          Cr19   2.012       .  S
O1            C9   1.269       .  A
O2          Cr19   1.977       .  S
O2            C3   1.261       .  A
C3            O4   1.270       .  A
C3         C1782   1.486       .  S
O4          Cr20   2.024       .  S
O5          Cr20   2.004       .  S
O5            C6   1.262       .  A
C6            O7   1.260       .  A
C6         C1866   1.478       .  S
O7          Cr21   1.998       .  S
O8          Cr21   1.977       .  S
O8            C9   1.262       .  A
C9         C1801   1.482       .  S
O10         Cr19   2.002       .  S
O10          C18   1.265       .  A
O11         Cr19   2.015       .  S
O11          C12   1.266       .  A
C12          O13   1.260       .  A
C12        C1745   1.483       .  S
O13         Cr20   1.985       .  S
O14         Cr20   2.029       .  S
O14          C15   1.271       .  A
C15          O16   1.260       .  A
C15        C1838   1.488       .  S
O16         Cr21   1.957       .  S
O17         Cr21   1.998       .  S
O17          C18   1.262       .  A
C18        C1885   1.494       .  S
Cr19         O22   1.769       .  S
Cr20         O22   1.771       .  S
Cr21         O22   1.759       .  S
O23         Cr41   2.024       .  S
O23          C31   1.270       .  A
O24         Cr41   1.967       .  S
O24          C25   1.258       .  A
C25          O26   1.266       .  A
C25        C1614   1.485       .  S
O26         Cr42   2.001       .  S
O27         Cr42   1.997       .  S
O27          C28   1.260       .  A
C28          O29   1.263       .  A
C28        C1717   1.490       .  S
O29         Cr43   1.999       .  S
O30         Cr43   1.962       .  S
O30          C31   1.261       .  A
C31        C1698   1.486       .  S
O32         Cr41   1.996       .  S
O32          C40   1.259       .  A
O33         Cr41   2.012       .  S
O33          C34   1.268       .  A
C34          O35   1.259       .  A
C34        C1642   1.486       .  S
O35         Cr42   1.969       .  S
O36         Cr42   2.015       .  S
O36          C37   1.271       .  A
C37          O38   1.260       .  A
C37        C1829   1.479       .  S
O38         Cr43   1.968       .  S
O39         Cr43   1.995       .  S
O39          C40   1.262       .  A
C40        C1661   1.478       .  S
Cr41         O44   1.772       .  S
Cr42         O44   1.770       .  S
Cr43         O44   1.757       .  S
O45         Cr63   1.990       .  S
O45          C53   1.264       .  A
O46         Cr63   2.014       .  S
O46          C47   1.269       .  A
C47          O48   1.261       .  A
C47        C1465   1.492       .  S
O48         Cr64   1.979       .  S
O49         Cr64   2.015       .  S
O49          C50   1.266       .  A
C50          O51   1.257       .  A
C50        C1577   1.469       .  S
O51         Cr65   1.958       .  S
O52         Cr65   2.002       .  S
O52          C53   1.267       .  A
C53        C1530   1.475       .  S
O54         Cr63   2.011       .  S
O54          C62   1.262       .  A
O55         Cr63   1.985       .  S
O55          C56   1.261       .  A
C56          O57   1.266       .  A
C56        C1493   1.480       .  S
O57         Cr64   2.013       .  S
O58         Cr64   1.990       .  S
O58          C59   1.260       .  A
C59          O60   1.262       .  A
C59        C1558   1.468       .  S
O60         Cr65   1.993       .  S
O61         Cr65   1.964       .  S
O61          C62   1.255       .  A
C62        C1689   1.464       .  S
Cr63         O66   1.774       .  S
Cr64         O66   1.777       .  S
Cr65         O66   1.759       .  S
O67         Cr85   2.029       .  S
O67          C75   1.268       .  A
O68         Cr85   1.983       .  S
O68          C69   1.263       .  A
C69          O70   1.268       .  A
C69        C1381   1.499       .  S
O70         Cr86   2.017       .  S
O71         Cr86   1.988       .  S
O71          C72   1.259       .  A
C72          O73   1.262       .  A
C72        C1726   1.470       .  S
O73         Cr87   2.001       .  S
O74         Cr87   1.974       .  S
O74          C75   1.259       .  A
C75        C1894   1.490       .  S
O76         Cr85   1.983       .  S
O76          C84   1.261       .  A
O77         Cr85   2.022       .  S
O77          C78   1.270       .  A
C78          O79   1.261       .  A
C78        C1409   1.492       .  S
O79         Cr86   1.981       .  S
O80         Cr86   2.020       .  S
O80          C81   1.269       .  A
C81          O82   1.258       .  A
C81        C1549   1.476       .  S
O82         Cr87   1.961       .  S
O83         Cr87   2.010       .  S
O83          C84   1.267       .  A
C84        C1446   1.478       .  S
Cr85         O88   1.779       .  S
Cr86         O88   1.779       .  S
Cr87         O88   1.770       .  S
O89        Cr107   1.998       .  S
O89          C97   1.258       .  A
O90        Cr107   2.017       .  S
O90          C91   1.271       .  A
C91          O92   1.259       .  A
C91        C1334   1.488       .  S
O92        Cr108   1.966       .  S
O93        Cr108   2.030       .  S
O93          C94   1.274       .  A
C94          O95   1.263       .  A
C94        C1586   1.479       .  S
O95        Cr109   1.967       .  S
O96        Cr109   1.992       .  S
O96          C97   1.256       .  A
C97        C1437   1.477       .  S
O98        Cr107   2.034       .  S
O98         C106   1.275       .  A
O99        Cr107   1.971       .  S
O99         C100   1.259       .  A
C100        O101   1.266       .  A
C100       C1297   1.494       .  S
O101       Cr108   2.014       .  S
O102       Cr108   2.003       .  S
O102        C103   1.260       .  A
C103        O104   1.258       .  A
C103       C1353   1.476       .  S
O104       Cr109   1.993       .  S
O105       Cr109   1.958       .  S
O105        C106   1.263       .  A
C106       C1810   1.483       .  S
Cr107       O110   1.771       .  S
Cr108       O110   1.775       .  S
Cr109       O110   1.762       .  S
O111       Cr129   2.015       .  S
O111        C119   1.271       .  A
O112       Cr129   1.975       .  S
O112        C113   1.261       .  A
C113        O114   1.270       .  A
C113       C1278   1.483       .  S
O114       Cr130   2.014       .  S
O115       Cr130   2.003       .  S
O115        C116   1.260       .  A
C116        O117   1.261       .  A
C116       C1857   1.489       .  S
O117       Cr131   1.994       .  S
O118       Cr131   1.971       .  S
O118        C119   1.261       .  A
C119       C1670   1.486       .  S
O120       Cr129   2.003       .  S
O120        C128   1.262       .  A
O121       Cr129   2.001       .  S
O121        C122   1.263       .  A
C122        O123   1.260       .  A
C122       C1241   1.489       .  S
O123       Cr130   1.973       .  S
O124       Cr130   2.031       .  S
O124        C125   1.272       .  A
C125        O126   1.260       .  A
C125       C1362   1.474       .  S
O126       Cr131   1.961       .  S
O127       Cr131   2.001       .  S
O127        C128   1.262       .  A
C128       C1521   1.492       .  S
Cr129       O132   1.778       .  S
Cr130       O132   1.776       .  S
Cr131       O132   1.766       .  S
O133       Cr151   1.993       .  S
O133        C141   1.258       .  A
O134       Cr151   2.021       .  S
O134        C135   1.270       .  A
C135        O136   1.263       .  A
C135       C1773   1.498   1_565  S
O136       Cr152   1.977       .  S
O137       Cr152   2.030       .  S
O137        C138   1.271       .  A
C138        O139   1.261       .  A
C138       C1157   1.495       .  S
O139       Cr153   1.976       .  S
O140       Cr153   1.985       .  S
O140        C141   1.258       .  A
C141       C1129   1.469       .  S
O142       Cr151   2.039       .  S
O142        C150   1.275       .  A
O143       Cr151   1.983       .  S
O143        C144   1.262       .  A
C144        O145   1.268       .  A
C144       C1418   1.496       .  S
O145       Cr152   2.021       .  S
O146       Cr152   1.998       .  S
O146        C147   1.264       .  A
C147        O148   1.259       .  A
C147       C1213   1.489       .  S
O148       Cr153   1.985       .  S
O149       Cr153   1.967       .  S
O149        C150   1.260       .  A
C150       C1185   1.500       .  S
Cr151       O154   1.778       .  S
Cr152       O154   1.776       .  S
Cr153       O154   1.766       .  S
O155       Cr173   2.009       .  S
O155        C163   1.268       .  A
O156       Cr173   1.974       .  S
O156        C157   1.260       .  A
C157        O158   1.270       .  A
C157        C998   1.495       .  S
O158       Cr174   2.018       .  S
O159       Cr174   2.008       .  S
O159        C160   1.263       .  A
C160        O161   1.256       .  A
C160       C1082   1.493       .  S
O161       Cr175   1.985       .  S
O162       Cr175   1.976       .  S
O162        C163   1.263       .  A
C163       C1045   1.464       .  S
O164       Cr173   2.009       .  S
O164        C172   1.261       .  A
O165       Cr173   1.990       .  S
O165        C166   1.263       .  A
C166        O167   1.260       .  A
C166       C1017   1.488       .  S
O167       Cr174   1.981       .  S
O168       Cr174   2.029       .  S
O168        C169   1.273       .  A
C169        O170   1.265       .  A
C169       C1222   1.483       .  S
O170       Cr175   1.966       .  S
O171       Cr175   1.995       .  S
O171        C172   1.259       .  A
C172       C1110   1.483       .  S
Cr173       O176   1.773       .  S
Cr174       O176   1.776       .  S
Cr175       O176   1.760       .  S
O177       Cr195   2.022       .  S
O177        C185   1.268       .  A
O178       Cr195   1.986       .  S
O178        C179   1.263       .  A
C179        O180   1.265       .  A
C179       C1325   1.492       .  S
O180       Cr196   2.007       .  S
O181       Cr196   1.998       .  S
O181        C182   1.261       .  A
C182        O183   1.264       .  A
C182       C1073   1.479       .  S
O183       Cr197   1.999       .  S
O184       Cr197   1.982       .  S
O184        C185   1.262       .  A
C185       C1194   1.481       .  S
O186       Cr195   1.995       .  S
O186        C194   1.263       .  A
O187       Cr195   2.019       .  S
O187        C188   1.270       .  A
C188        O189   1.262       .  A
C188       C1754   1.493   1_455  S
O189       Cr196   1.985       .  S
O190       Cr196   2.024       .  S
O190        C191   1.267       .  A
C191        O192   1.261       .  A
C191        C961   1.486       .  S
O192       Cr197   1.974       .  S
O193       Cr197   1.994       .  S
O193        C194   1.262       .  A
C194        C933   1.478       .  S
Cr195       O198   1.775       .  S
Cr196       O198   1.777       .  S
Cr197       O198   1.761       .  S
O199       Cr217   1.990       .  S
O199        C207   1.260       .  A
O200       Cr217   2.026       .  S
O200        C201   1.271       .  A
C201        O202   1.262       .  A
C201        C858   1.490       .  S
O202       Cr218   1.970       .  S
O203       Cr218   2.025       .  S
O203        C204   1.271       .  A
C204        O205   1.260       .  A
C204        C905   1.491       .  S
O205       Cr219   1.971       .  S
O206       Cr219   1.993       .  S
O206        C207   1.261       .  A
C207        C877   1.471       .  S
O208       Cr217   2.031       .  S
O208        C216   1.270       .  A
O209       Cr217   1.975       .  S
O209        C210   1.259       .  A
C210        O211   1.267       .  A
C210        C830   1.490       .  S
O211       Cr218   2.015       .  S
O212       Cr218   1.995       .  S
O212        C213   1.262       .  A
C213        O214   1.262       .  A
C213        C970   1.482       .  S
O214       Cr219   1.995       .  S
O215       Cr219   1.956       .  S
O215        C216   1.258       .  A
C216       C1054   1.483       .  S
Cr217       O220   1.774       .  S
Cr218       O220   1.771       .  S
Cr219       O220   1.759       .  S
O221       Cr239   2.023       .  S
O221        C229   1.272       .  A
O222       Cr239   1.973       .  S
O222        C223   1.258       .  A
C223        O224   1.266       .  A
C223        C746   1.486       .  S
O224       Cr240   2.004       .  S
O225       Cr240   2.002       .  S
O225        C226   1.265       .  A
C226        O227   1.264       .  A
C226       C1166   1.482       .  S
O227       Cr241   1.992       .  S
O228       Cr241   1.979       .  S
O228        C229   1.262       .  A
C229       C1101   1.496       .  S
O230       Cr239   1.981       .  S
O230        C238   1.258       .  A
O231       Cr239   2.018       .  S
O231        C232   1.269       .  A
C232        O233   1.263       .  A
C232        C774   1.498       .  S
O233       Cr240   1.984       .  S
O234       Cr240   2.006       .  S
O234        C235   1.263       .  A
C235        O236   1.259       .  A
C235        C793   1.462       .  S
O236       Cr241   1.975       .  S
O237       Cr241   1.995       .  S
O237        C238   1.261       .  A
C238        C886   1.477       .  S
Cr239       O242   1.774       .  S
Cr240       O242   1.777       .  S
Cr241       O242   1.763       .  S
O243       Cr261   1.994       .  S
O243        C251   1.259       .  A
O244       Cr261   2.026       .  S
O244        C245   1.272       .  A
C245        O246   1.259       .  A
C245       C1390   1.497       .  S
O246       Cr262   1.968       .  S
O247       Cr262   2.030       .  S
O247        C248   1.274       .  A
C248        O249   1.262       .  A
C248        C914   1.490       .  S
O249       Cr263   1.970       .  S
O250       Cr263   2.000       .  S
O250        C251   1.259       .  A
C251        C942   1.477       .  S
O252       Cr261   2.038       .  S
O252        C260   1.276       .  A
O253       Cr261   1.977       .  S
O253        C254   1.259       .  A
C254        O255   1.267       .  A
C254       C1306   1.487       .  S
O255       Cr262   2.011       .  S
O256       Cr262   1.992       .  S
O256        C257   1.258       .  A
C257        O258   1.261       .  A
C257        C802   1.474       .  S
O258       Cr263   1.998       .  S
O259       Cr263   1.960       .  S
O259        C260   1.261       .  A
C260       C1138   1.486       .  S
Cr261       O264   1.772       .  S
Cr262       O264   1.772       .  S
Cr263       O264   1.767       .  S
O265       Cr283   2.018       .  S
O265        C273   1.271       .  A
O266       Cr283   1.973       .  S
O266        C267   1.260       .  A
C267        O268   1.265       .  A
C267        C737   1.478       .  S
O268       Cr284   1.999       .  S
O269       Cr284   2.001       .  S
O269        C270   1.261       .  A
C270        O271   1.261       .  A
C270        C653   1.485       .  S
O271       Cr285   1.997       .  S
O272       Cr285   1.969       .  S
O272        C273   1.261       .  A
C273        C625   1.481       .  S
O274       Cr283   1.997       .  S
O274        C282   1.259       .  A
O275       Cr283   2.000       .  S
O275        C276   1.266       .  A
C276        O277   1.260       .  A
C276        C821   1.480       .  S
O277       Cr284   1.977       .  S
O278       Cr284   2.016       .  S
O278        C279   1.270       .  A
C279        O280   1.263       .  A
C279        C709   1.484       .  S
O280       Cr285   1.967       .  S
O281       Cr285   2.003       .  S
O281        C282   1.260       .  A
C282        C681   1.476       .  S
Cr283       O286   1.771       .  S
Cr284       O286   1.773       .  S
Cr285       O286   1.763       .  S
O287       Cr305   2.020       .  S
O287        C295   1.273       .  A
O288       Cr305   1.969       .  S
O288        C289   1.260       .  A
C289        O290   1.267       .  A
C289       C1474   1.490   1_655  S
O290       Cr306   2.014       .  S
O291       Cr306   2.006       .  S
O291        C292   1.261       .  A
C292        O293   1.256       .  A
C292        C597   1.480       .  S
O293       Cr307   1.992       .  S
O294       Cr307   1.966       .  S
O294        C295   1.264       .  A
C295        C578   1.485       .  S
O296       Cr305   2.001       .  S
O296        C304   1.259       .  A
O297       Cr305   2.005       .  S
O297        C298   1.266       .  A
C298        O299   1.260       .  A
C298       C1633   1.490   1_655  S
O299       Cr306   1.973       .  S
O300       Cr306   2.020       .  S
O300        C301   1.274       .  A
C301        O302   1.263       .  A
C301        C718   1.481       .  S
O302       Cr307   1.963       .  S
O303       Cr307   1.991       .  S
O303        C304   1.256       .  A
C304        C550   1.478       .  S
Cr305       O308   1.770       .  S
Cr306       O308   1.771       .  S
Cr307       O308   1.765       .  S
O309       Cr327   2.032       .  S
O309        C317   1.272       .  A
O310       Cr327   1.974       .  S
O310        C311   1.260       .  A
C311        O312   1.270       .  A
C311        C989   1.492       .  S
O312       Cr328   2.021       .  S
O313       Cr328   2.002       .  S
O313        C314   1.261       .  A
C314        O315   1.262       .  A
C314        C606   1.483       .  S
O315       Cr329   2.002       .  S
O316       Cr329   1.975       .  S
O316        C317   1.263       .  A
C317        C690   1.498       .  S
O318       Cr327   1.992       .  S
O318        C326   1.259       .  A
O319       Cr327   2.015       .  S
O319        C320   1.268       .  A
C320        O321   1.262       .  A
C320        C765   1.492       .  S
O321       Cr328   1.985       .  S
O322       Cr328   2.035       .  S
O322        C323   1.274       .  A
C323        O324   1.264       .  A
C323        C522   1.499       .  S
O324       Cr329   1.976       .  S
O325       Cr329   2.007       .  S
O325        C326   1.264       .  A
C326        C485   1.484       .  S
Cr327       O330   1.773       .  S
Cr328       O330   1.775       .  S
Cr329       O330   1.766       .  S
O331       Cr349   1.993       .  S
O331        C339   1.262       .  A
O332       Cr349   2.012       .  S
O332        C333   1.267       .  A
C333        O334   1.262       .  A
C333        C849   1.475       .  S
O334       Cr350   1.977       .  S
O335       Cr350   2.013       .  S
O335        C336   1.262       .  A
C336        O337   1.257       .  A
C336        C438   1.477       .  S
O337       Cr351   1.963       .  S
O338       Cr351   1.987       .  S
O338        C339   1.260       .  A
C339        C494   1.477       .  S
O340       Cr349   2.021       .  S
O340        C348   1.267       .  A
O341       Cr349   1.983       .  S
O341        C342   1.261       .  A
C342        O343   1.266       .  A
C342       C1026   1.490       .  S
O343       Cr350   2.003       .  S
O344       Cr350   1.994       .  S
O344        C345   1.265       .  A
C345        O346   1.265       .  A
C345        C466   1.476       .  S
O346       Cr351   1.995       .  S
O347       Cr351   1.953       .  S
O347        C348   1.258       .  A
C348        C634   1.482       .  S
Cr349       O352   1.778       .  S
Cr350       O352   1.776       .  S
Cr351       O352   1.754       .  S
O353       Cr371   2.022       .  S
O353        C361   1.270       .  A
O354       Cr371   1.972       .  S
O354        C355   1.259       .  A
C355        O356   1.270       .  A
C355       C1269   1.495       .  S
O356       Cr372   2.020       .  S
O357       Cr372   1.995       .  S
O357        C358   1.262       .  A
C358        O359   1.264       .  A
C358        C662   1.487       .  S
O359       Cr373   2.007       .  S
O360       Cr373   1.978       .  S
O360        C361   1.263       .  A
C361        C541   1.494       .  S
O362       Cr371   1.989       .  S
O362        C370   1.259       .  A
O363       Cr371   2.014       .  S
O363        C364   1.267       .  A
C364        O365   1.260       .  A
C364       C1502   1.488       .  S
O365       Cr372   1.976       .  S
O366       Cr372   2.028       .  S
O366        C367   1.270       .  A
C367        O368   1.261       .  A
C367        C457   1.493       .  S
O368       Cr373   1.971       .  S
O369       Cr373   1.995       .  S
O369        C370   1.264       .  A
C370        C401   1.477       .  S
Cr371       O374   1.776       .  S
Cr372       O374   1.770       .  S
Cr373       O374   1.760       .  S
O375       Cr393   1.994       .  S
O375        C383   1.259       .  A
O376       Cr393   2.002       .  S
O376        C377   1.263       .  A
C377        O378   1.260       .  A
C377       C1605   1.485       .  S
O378       Cr394   1.972       .  S
O379       Cr394   2.015       .  S
O379        C380   1.268       .  A
C380        O381   1.259       .  A
C380        C429   1.484       .  S
O381       Cr395   1.961       .  S
O382       Cr395   2.002       .  S
O382        C383   1.264       .  A
C383        C410   1.473       .  S
O384       Cr393   2.022       .  S
O384        C392   1.267       .  A
O385       Cr393   1.971       .  S
O385        C386   1.262       .  A
C386        O387   1.268       .  A
C386       C1250   1.488       .  S
O387       Cr394   2.013       .  S
O388       Cr394   1.992       .  S
O388        C389   1.262       .  A
C389        O390   1.263       .  A
C389        C513   1.480       .  S
O390       Cr395   1.999       .  S
O391       Cr395   1.958       .  S
O391        C392   1.256       .  A
C392        C569   1.461       .  S
Cr393       O396   1.772       .  S
Cr394       O396   1.770       .  S
Cr395       O396   1.757       .  S
C397        C398   1.405       .  A
C397        C402   1.405       .  A
C397        H407   1.084       .  S
C398        C403   1.481       .  S
C398        C399   1.408       .  A
C399        C400   1.396       .  A
C399        N404   1.429       .  S
C400        C401   1.403       .  A
C400        H405   1.084       .  S
C401        C402   1.410       .  A
C402        N406   1.428       .  S
C403        C408   1.410       .  A
C403        C412   1.405       .  A
N404        O419   1.262       .  A
N404        O420   1.262       .  A
N406        O417   1.262       .  A
N406        O418   1.262       .  A
C408        C409   1.390       .  A
C408        N413   1.429       .  S
C409        C410   1.393       .  A
C409        H414   1.128       .  S
C410        C411   1.410       .  A
C411        C412   1.406       .  A
C411        N415   1.428       .  S
C412        H416   1.095       .  S
N413        O423   1.262       .  A
N413        O424   1.262       .  A
N415        O421   1.262       .  A
N415        O422   1.262       .  A
C425        C426   1.402       .  A
C425        C430   1.400       .  A
C425        H435   1.083       .  S
C426        C431   1.480       .  S
C426        C427   1.409       .  A
C427        C428   1.395       .  A
C427        N432   1.430       .  S
C428        C429   1.407       .  A
C428        H433   1.083       .  S
C429        C430   1.415       .  A
C430        N434   1.429       .  S
C431        C436   1.409       .  A
C431        C440   1.405       .  A
N432        O447   1.262       .  A
N432        O448   1.262       .  A
N434        O445   1.262       .  A
N434        O446   1.262       .  A
C436        C437   1.393       .  A
C436        N441   1.430       .  S
C437        C438   1.401       .  A
C437        H442   1.074       .  S
C438        C439   1.412       .  A
C439        C440   1.402       .  A
C439        N443   1.429       .  S
C440        H444   1.082       .  S
N441        O451   1.262       .  A
N441        O452   1.262       .  A
N443        O449   1.262       .  A
N443        O450   1.262       .  A
C453        C454   1.402       .  A
C453        C458   1.405       .  A
C453        H463   1.083       .  S
C454        C459   1.479       .  S
C454        C455   1.407       .  A
C455        C456   1.399       .  A
C455        N460   1.430       .  S
C456        C457   1.409       .  A
C456        H461   1.083       .  S
C457        C458   1.416       .  A
C458        N462   1.429       .  S
C459        C464   1.410       .  A
C459        C468   1.398       .  A
N460        O475   1.262       .  A
N460        O476   1.262       .  A
N462        O473   1.262   1_545  A
N462        O474   1.261       .  A
C464        C465   1.408       .  A
C464        N469   1.428       .  S
C465        C466   1.405       .  A
C465        H470   1.084       .  S
C466        C467   1.411       .  A
C467        C468   1.395       .  A
C467        N471   1.430       .  S
C468        H472   1.084       .  S
N469        O479   1.262       .  A
N469        O480   1.262       .  A
N471        O477   1.262       .  A
N471        O478   1.262       .  A
C481        C482   1.402       .  A
C481        C486   1.407       .  A
C481        H491   1.084       .  S
C482        C487   1.479       .  S
C482        C483   1.409       .  A
C483        C484   1.398       .  A
C483        N488   1.430       .  S
C484        C485   1.404       .  A
C484        H489   1.084       .  S
C485        C486   1.414       .  A
C486        N490   1.429       .  S
C487        C492   1.408       .  A
C487        C496   1.398       .  A
N488        O503   1.262       .  A
N488        O504   1.262       .  A
N490        O501   1.262   1_556  A
N490        O502   1.262       .  A
C492        C493   1.405       .  A
C492        N497   1.428   1_556  S
C493        C494   1.404       .  A
C493        H498   1.083   1_556  S
C494        C495   1.414       .  A
C495        C496   1.397       .  A
C495        N499   1.429       .  S
C496        H500   1.084       .  S
N497        O507   1.262       .  A
N497        O508   1.262       .  A
N499        O505   1.262       .  A
N499        O506   1.262       .  A
C509        C510   1.400       .  A
C509        C514   1.398       .  A
C509        H519   1.084       .  S
C510        C515   1.484       .  S
C510        C511   1.411       .  A
C511        C512   1.408       .  A
C511        N516   1.429       .  S
C512        C513   1.405       .  A
C512        H517   1.083       .  S
C513        C514   1.411       .  A
C514        N518   1.429       .  S
C515        C520   1.407       .  A
C515        C524   1.401       .  A
N516        O531   1.262       .  A
N516        O532   1.262       .  A
N518        O529   1.262       .  A
N518        O530   1.262       .  A
C520        C521   1.403       .  A
C520        N525   1.430       .  S
C521        C522   1.411       .  A
C521        H526   1.084       .  S
C522        C523   1.418       .  A
C523        C524   1.406       .  A
C523        N527   1.428       .  S
C524        H528   1.084       .  S
N525        O535   1.262       .  A
N525        O536   1.262       .  A
N527        O533   1.262       .  A
N527        O534   1.262       .  A
C537        C538   1.402       .  A
C537        C542   1.404       .  A
C537        H547   1.084       .  S
C538        C543   1.483       .  S
C538        C539   1.409       .  A
C539        C540   1.402       .  A
C539        N544   1.429       .  S
C540        C541   1.408       .  A
C540        H545   1.083       .  S
C541        C542   1.417       .  A
C542        N546   1.428       .  S
C543        C548   1.412       .  A
C543        C552   1.400       .  A
N544        O559   1.262       .  A
N544        O560   1.262       .  A
N546        O557   1.262       .  A
N546        O558   1.262       .  A
C548        C549   1.408       .  A
C548        N553   1.428       .  S
C549        C550   1.404       .  A
C549        H554   1.083       .  S
C550        C551   1.412       .  A
C551        C552   1.395       .  A
C551        N555   1.430       .  S
C552        H556   1.084       .  S
N553        O563   1.262       .  A
N553        O564   1.262       .  A
N555        O561   1.261       .  A
N555        O562   1.262       .  A
C565        C566   1.400       .  A
C565        C570   1.394       .  A
C565        H575   1.084       .  S
C566        C571   1.473       .  S
C566        C567   1.408       .  A
C567        C568   1.400       .  A
C567        N572   1.428       .  S
C568        C569   1.402       .  A
C568        H573   1.084       .  S
C569        C570   1.406       .  A
C570        N574   1.427       .  S
C571        C576   1.409       .  A
C571        C580   1.399       .  A
N572        O587   1.262       .  A
N572        O588   1.262       .  A
N574        O585   1.262       .  A
N574        O586   1.262       .  A
C576        C577   1.397       .  A
C576        N581   1.431       .  S
C577        C578   1.407       .  A
C577        H582   1.083       .  S
C578        C579   1.416       .  A
C579        C580   1.399       .  A
C579        N583   1.429       .  S
C580        H584   1.084       .  S
N581        O591   1.262       .  A
N581        O592   1.262       .  A
N583        O589   1.262       .  A
N583        O590   1.262       .  A
C593        C594   1.402       .  A
C593        C598   1.399       .  A
C593        H603   1.084       .  S
C594        C599   1.490       .  S
C594        C595   1.414       .  A
C595        C596   1.408       .  A
C595        N600   1.429       .  S
C596        C597   1.403       .  A
C596        H601   1.084       .  S
C597        C598   1.413       .  A
C598        N602   1.430       .  S
C599        C604   1.412       .  A
C599        C608   1.407       .  A
N600        O615   1.262       .  A
N600        O616   1.262       .  A
N602        O613   1.262       .  A
N602        O614   1.262       .  A
C604        C605   1.400       .  A
C604        N609   1.430       .  S
C605        C606   1.403       .  A
C605        H610   1.084       .  S
C606        C607   1.411       .  A
C607        C608   1.408       .  A
C607        N611   1.428       .  S
C608        H612   1.084       .  S
N609        O619   1.262       .  A
N609        O620   1.262       .  A
N611        O617   1.262       .  A
N611        O618   1.262       .  A
C621        C622   1.402       .  A
C621        C626   1.396       .  A
C621        H631   1.083       .  S
C622        C627   1.483       .  S
C622        C623   1.409       .  A
C623        C624   1.400       .  A
C623        N628   1.429   1_556  S
C624        C625   1.406       .  A
C624        H629   1.082       .  S
C625        C626   1.413       .  A
C626        N630   1.429       .  S
C627        C632   1.409       .  A
C627        C636   1.404       .  A
N628        O643   1.262       .  A
N628        O644   1.262       .  A
N630        O641   1.262       .  A
N630        O642   1.261       .  A
C632        C633   1.390       .  A
C632        N637   1.431       .  S
C633        C634   1.404       .  A
C633        H638   1.083       .  S
C634        C635   1.416       .  A
C635        C636   1.407       .  A
C635        N639   1.431   1_556  S
C636        H640   1.082   1_556  S
N637        O647   1.262       .  A
N637        O648   1.262       .  A
N639        O645   1.262       .  A
N639        O646   1.262       .  A
C649        C650   1.407       .  A
C649        C654   1.411       .  A
C649        H659   1.083       .  S
C650        C655   1.485       .  S
C650        C651   1.407       .  A
C651        C652   1.397       .  A
C651        N656   1.430       .  S
C652        C653   1.405       .  A
C652        H657   1.084       .  S
C653        C654   1.413       .  A
C654        N658   1.430       .  S
C655        C660   1.410       .  A
C655        C664   1.400       .  A
N656        O671   1.262       .  A
N656        O672   1.262       .  A
N658        O669   1.261       .  A
N658        O670   1.262       .  A
C660        C661   1.408       .  A
C660        N665   1.428       .  S
C661        C662   1.406       .  A
C661        H666   1.083       .  S
C662        C663   1.414       .  A
C663        C664   1.400       .  A
C663        N667   1.429       .  S
C664        H668   1.084       .  S
N665        O675   1.262       .  A
N665        O676   1.262       .  A
N667        O673   1.262       .  A
N667        O674   1.261       .  A
C677        C678   1.403       .  A
C677        C682   1.397       .  A
C677        H687   1.084       .  S
C678        C683   1.492       .  S
C678        C679   1.416       .  A
C679        C680   1.409       .  A
C679        N684   1.430       .  S
C680        C681   1.403       .  A
C680        H685   1.084       .  S
C681        C682   1.407       .  A
C682        N686   1.428       .  S
C683        C688   1.412       .  A
C683        C692   1.406       .  A
N684        O699   1.262       .  A
N684        O700   1.262       .  A
N686        O697   1.262       .  A
N686        O698   1.262   1_556  A
C688        C689   1.402       .  A
C688        N693   1.431       .  S
C689        C690   1.409       .  A
C689        H694   1.083       .  S
C690        C691   1.416       .  A
C691        C692   1.406       .  A
C691        N695   1.429   1_556  S
C692        H696   1.084   1_556  S
N693        O703   1.262       .  A
N693        O704   1.262       .  A
N695        O701   1.262       .  A
N695        O702   1.262       .  A
C705        C706   1.401       .  A
C705        C710   1.400       .  A
C705        H715   1.084       .  S
C706        C711   1.477       .  S
C706        C707   1.411       .  A
C707        C708   1.397       .  A
C707        N712   1.432       .  S
C708        C709   1.406       .  A
C708        H713   1.084       .  S
C709        C710   1.416       .  A
C710        N714   1.429       .  S
C711        C716   1.407       .  A
C711        C720   1.400       .  A
N712        O727   1.262       .  A
N712        O728   1.262       .  A
N714        O725   1.262       .  A
N714        O726   1.262       .  A
C716        C717   1.399       .  A
C716        N721   1.430       .  S
C717        C718   1.407       .  A
C717        H722   1.083       .  S
C718        C719   1.415       .  A
C719        C720   1.395       .  A
C719        N723   1.430       .  S
C720        H724   1.084       .  S
N721        O731   1.262   1_655  A
N721        O732   1.262       .  A
N723        O729   1.262       .  A
N723        O730   1.262       .  A
C733        C734   1.402   1_554  A
C733        C738   1.399       .  A
C733        H743   1.083       .  S
C734        C739   1.479   1_546  S
C734        C735   1.408       .  A
C735        C736   1.398       .  A
C735        N740   1.429   1_545  S
C736        C737   1.404       .  A
C736        H741   1.083       .  S
C737        C738   1.413   1_556  A
C738        N742   1.429       .  S
C739        C744   1.407       .  A
C739        C748   1.401   1_554  A
N740        O755   1.262       .  A
N740        O756   1.262       .  A
N742        O753   1.262       .  A
N742        O754   1.262       .  A
C744        C745   1.398       .  A
C744        N749   1.429       .  S
C745        C746   1.407       .  A
C745        H750   1.083       .  S
C746        C747   1.416       .  A
C747        C748   1.400   1_554  A
C747        N751   1.429   1_554  S
C748        H752   1.083       .  S
N749        O759   1.262   1_565  A
N749        O760   1.262       .  A
N751        O757   1.262       .  A
N751        O758   1.262       .  A
C761        C762   1.403   1_556  A
C761        C766   1.404       .  A
C761        H771   1.084       .  S
C762        C767   1.493       .  S
C762        C763   1.413       .  A
C763        C764   1.407       .  A
C763        N768   1.430       .  S
C764        C765   1.407   1_554  A
C764        H769   1.083       .  S
C765        C766   1.413       .  A
C766        N770   1.428       .  S
C767        C772   1.411       .  A
C767        C776   1.404       .  A
N768        O783   1.262       .  A
N768        O784   1.262       .  A
N770        O781   1.262       .  A
N770        O782   1.262       .  A
C772        C773   1.405       .  A
C772        N777   1.429       .  S
C773        C774   1.408       .  A
C773        H778   1.083       .  S
C774        C775   1.417       .  A
C775        C776   1.406       .  A
C775        N779   1.429   1_554  S
C776        H780   1.084   1_554  S
N777        O787   1.262       .  A
N777        O788   1.262       .  A
N779        O785   1.262       .  A
N779        O786   1.262       .  A
C789        C790   1.407       .  A
C789        C794   1.401       .  A
C789        H799   1.083       .  S
C790        C795   1.484       .  S
C790        C791   1.413       .  A
C791        C792   1.398       .  A
C791        N796   1.429       .  S
C792        C793   1.398       .  A
C792        H797   1.084       .  S
C793        C794   1.404       .  A
C794        N798   1.429       .  S
C795        C800   1.410       .  A
C795        C804   1.406       .  A
N796        O811   1.262       .  A
N796        O812   1.262       .  A
N798        O809   1.261       .  A
N798        O810   1.262       .  A
C800        C801   1.395       .  A
C800        N805   1.430       .  S
C801        C802   1.402       .  A
C801        H806   1.084       .  S
C802        C803   1.410       .  A
C803        C804   1.404       .  A
C803        N807   1.429       .  S
C804        H808   1.083       .  S
N805        O815   1.262       .  A
N805        O816   1.262       .  A
N807        O813   1.262       .  A
N807        O814   1.262       .  A
C817        C818   1.403   1_556  A
C817        C822   1.403       .  A
C817        H827   1.083       .  S
C818        C823   1.483   1_655  S
C818        C819   1.410       .  A
C819        C820   1.398       .  A
C819        N824   1.429       .  S
C820        C821   1.404   1_554  A
C820        H825   1.084       .  S
C821        C822   1.413       .  A
C822        N826   1.429       .  S
C823        C828   1.409       .  A
C823        C832   1.399       .  A
N824        O839   1.262       .  A
N824        O840   1.262       .  A
N826        O837   1.262       .  A
N826        O838   1.262       .  A
C828        C829   1.404       .  A
C828        N833   1.428       .  S
C829        C830   1.408       .  A
C829        H834   1.083       .  S
C830        C831   1.416       .  A
C831        C832   1.398       .  A
C831        N835   1.427       .  S
C832        H836   1.084       .  S
N833        O843   1.262       .  A
N833        O844   1.262   1_455  A
N835        O841   1.261   1_554  A
N835        O842   1.262       .  A
C845        C846   1.405       .  A
C845        C850   1.402       .  A
C845        H855   1.084       .  S
C846        C851   1.488   1_556  S
C846        C847   1.414   1_556  A
C847        C848   1.403   1_554  A
C847        N852   1.430       .  S
C848        C849   1.401       .  A
C848        H853   1.084   1_556  S
C849        C850   1.410       .  A
C850        N854   1.431       .  S
C851        C856   1.411       .  A
C851        C860   1.404   1_554  A
N852        O867   1.262       .  A
N852        O868   1.262       .  A
N854        O865   1.262       .  A
N854        O866   1.262       .  A
C856        C857   1.401       .  A
C856        N861   1.431       .  S
C857        C858   1.407       .  A
C857        H862   1.084       .  S
C858        C859   1.414       .  A
C859        C860   1.405   1_554  A
C859        N863   1.428   1_554  S
C860        H864   1.084       .  S
N861        O871   1.262       .  A
N861        O872   1.262       .  A
N863        O869   1.262       .  A
N863        O870   1.262       .  A
C873        C874   1.400       .  A
C873        C878   1.395       .  A
C873        H883   1.084       .  S
C874        C879   1.475       .  S
C874        C875   1.408       .  A
C875        C876   1.404       .  A
C875        N880   1.427       .  S
C876        C877   1.403       .  A
C876        H881   1.083       .  S
C877        C878   1.412       .  A
C878        N882   1.431       .  S
C879        C884   1.407       .  A
C879        C888   1.400       .  A
N880        O895   1.262       .  A
N880        O896   1.262       .  A
N882        O893   1.262       .  A
N882        O894   1.261       .  A
C884        C885   1.403       .  A
C884        N889   1.428   1_554  S
C885        C886   1.405       .  A
C885        H890   1.083       .  S
C886        C887   1.413       .  A
C887        C888   1.397       .  A
C887        N891   1.430       .  S
C888        H892   1.084       .  S
N889        O899   1.262       .  A
N889        O900   1.262       .  A
N891        O897   1.262       .  A
N891        O898   1.261       .  A
C901        C902   1.404       .  A
C901        C906   1.400       .  A
C901        H911   1.083       .  S
C902        C907   1.491       .  S
C902        C903   1.412       .  A
C903        C904   1.404       .  A
C903        N908   1.429       .  S
C904        C905   1.408       .  A
C904        H909   1.083       .  S
C905        C906   1.416       .  A
C906        N910   1.430       .  S
C907        C912   1.412       .  A
C907        C916   1.404       .  A
N908        O923   1.262       .  A
N908        O924   1.262       .  A
N910        O921   1.262       .  A
N910        O922   1.262       .  A
C912        C913   1.402       .  A
C912        N917   1.429       .  S
C913        C914   1.406       .  A
C913        H918   1.083       .  S
C914        C915   1.416       .  A
C915        C916   1.402       .  A
C915        N919   1.430       .  S
C916        H920   1.083       .  S
N917        O927   1.262       .  A
N917        O928   1.262       .  A
N919        O925   1.262       .  A
N919        O926   1.262       .  A
C929        C930   1.400       .  A
C929        C934   1.399       .  A
C929        H939   1.084       .  S
C930        C935   1.485       .  S
C930        C931   1.411       .  A
C931        C932   1.406       .  A
C931        N936   1.428       .  S
C932        C933   1.404       .  A
C932        H937   1.083       .  S
C933        C934   1.412       .  A
C934        N938   1.429       .  S
C935        C940   1.412       .  A
C935        C944   1.403       .  A
N936        O951   1.262       .  A
N936        O952   1.262       .  A
N938        O949   1.262       .  A
N938        O950   1.262       .  A
C940        C941   1.404       .  A
C940        N945   1.428       .  S
C941        C942   1.402       .  A
C941        H946   1.084       .  S
C942        C943   1.412       .  A
C943        C944   1.400       .  A
C943        N947   1.430       .  S
C944        H948   1.084       .  S
N945        O955   1.262       .  A
N945        O956   1.261       .  A
N947        O953   1.262       .  A
N947        O954   1.262       .  A
C957        C958   1.403       .  A
C957        C962   1.405       .  A
C957        H967   1.081       .  S
C958        C963   1.478       .  S
C958        C959   1.407       .  A
C959        C960   1.399       .  A
C959        N964   1.429       .  S
C960        C961   1.404       .  A
C960        H965   1.074       .  S
C961        C962   1.414       .  A
C962        N966   1.428       .  S
C963        C968   1.409       .  A
C963        C972   1.395       .  A
N964        O979   1.262       .  A
N964        O980   1.261       .  A
N966        O977   1.262   1_455  A
N966        O978   1.261       .  A
C968        C969   1.408       .  A
C968        N973   1.428       .  S
C969        C970   1.407       .  A
C969        H974   1.083       .  S
C970        C971   1.414       .  A
C971        C972   1.392       .  A
C971        N975   1.428       .  S
C972        H976   1.085       .  S
N973        O983   1.262       .  A
N973        O984   1.261       .  A
N975        O981   1.261       .  A
N975        O982   1.262       .  A
C985        C986   1.400       .  A
C985        C990   1.400   1_554  A
C985        H995   1.084       .  S
C986        C991   1.486   1_655  S
C986        C987   1.410   1_554  A
C987        C988   1.407       .  A
C987        N992   1.428       .  S
C988        C989   1.408       .  A
C988        H993   1.083       .  S
C989        C990   1.417       .  A
C990        N994   1.429       .  S
C991        C996   1.409       .  A
C991       C1000   1.400   1_554  A
N992       O1007   1.262       .  A
N992       O1008   1.262   1_556  A
N994       O1005   1.261   1_556  A
N994       O1006   1.262       .  A
C996        C997   1.406       .  A
C996       N1001   1.428   1_455  S
C997        C998   1.408       .  A
C997       H1002   1.083       .  S
C998        C999   1.419       .  A
C999       C1000   1.402   1_554  A
C999       N1003   1.429   1_554  S
C1000      H1004   1.084       .  S
N1001      O1011   1.262       .  A
N1001      O1012   1.262       .  A
N1003      O1009   1.262       .  A
N1003      O1010   1.262       .  A
C1013      C1014   1.402       .  A
C1013      C1018   1.401       .  A
C1013      H1023   1.084   1_565  S
C1014      C1019   1.478   1_565  S
C1014      C1015   1.407   1_554  A
C1015      C1016   1.398   1_556  A
C1015      N1020   1.431       .  S
C1016      C1017   1.409       .  A
C1016      H1021   1.083   1_554  S
C1017      C1018   1.416       .  A
C1018      N1022   1.429       .  S
C1019      C1024   1.407   1_554  A
C1019      C1028   1.399       .  A
N1020      O1035   1.262       .  A
N1020      O1036   1.262       .  A
N1022      O1033   1.262       .  A
N1022      O1034   1.262       .  A
C1024      C1025   1.400       .  A
C1024      N1029   1.430       .  S
C1025      C1026   1.409       .  A
C1025      H1030   1.083       .  S
C1026      C1027   1.416   1_556  A
C1027      C1028   1.399       .  A
C1027      N1031   1.427       .  S
C1028      H1032   1.084       .  S
N1029      O1039   1.262       .  A
N1029      O1040   1.262       .  A
N1031      O1037   1.262       .  A
N1031      O1038   1.261       .  A
C1041      C1042   1.403       .  A
C1041      C1046   1.400       .  A
C1041      H1051   1.078       .  S
C1042      C1047   1.469       .  S
C1042      C1043   1.405       .  A
C1043      C1044   1.396       .  A
C1043      N1048   1.430       .  S
C1044      C1045   1.403       .  A
C1044      H1049   1.058       .  S
C1045      C1046   1.406       .  A
C1046      N1050   1.429       .  S
C1047      C1052   1.402       .  A
C1047      C1056   1.400       .  A
N1048      O1063   1.261   1_554  A
N1048      O1064   1.262       .  A
N1050      O1061   1.262       .  A
N1050      O1062   1.262       .  A
C1052      C1053   1.391       .  A
C1052      N1057   1.431       .  S
C1053      C1054   1.407       .  A
C1053      H1058   1.085       .  S
C1054      C1055   1.415       .  A
C1055      C1056   1.404       .  A
C1055      N1059   1.428       .  S
C1056      H1060   1.086       .  S
N1057      O1067   1.262       .  A
N1057      O1068   1.262       .  A
N1059      O1065   1.261   1_554  A
N1059      O1066   1.262   1_554  A
C1069      C1070   1.406       .  A
C1069      C1074   1.409       .  A
C1069      H1079   1.083       .  S
C1070      C1075   1.480       .  S
C1070      C1071   1.407       .  A
C1071      C1072   1.396       .  A
C1071      N1076   1.429       .  S
C1072      C1073   1.402       .  A
C1072      H1077   1.080       .  S
C1073      C1074   1.412       .  A
C1074      N1078   1.429       .  S
C1075      C1080   1.408       .  A
C1075      C1084   1.396       .  A
N1076      O1091   1.262       .  A
N1076      O1092   1.261       .  A
N1078      O1089   1.261       .  A
N1078      O1090   1.261       .  A
C1080      C1081   1.409       .  A
C1080      N1085   1.427       .  S
C1081      C1082   1.409       .  A
C1081      H1086   1.083       .  S
C1082      C1083   1.422       .  A
C1083      C1084   1.395       .  A
C1083      N1087   1.431       .  S
C1084      H1088   1.084       .  S
N1085      O1095   1.262       .  A
N1085      O1096   1.262       .  A
N1087      O1093   1.262       .  A
N1087      O1094   1.261       .  A
C1097      C1098   1.399       .  A
C1097      C1102   1.400       .  A
C1097      H1107   1.084       .  S
C1098      C1103   1.488       .  S
C1098      C1099   1.411       .  A
C1099      C1100   1.406       .  A
C1099      N1104   1.430   1_554  S
C1100      C1101   1.409       .  A
C1100      H1105   1.083       .  S
C1101      C1102   1.418       .  A
C1102      N1106   1.427       .  S
C1103      C1108   1.410       .  A
C1103      C1112   1.409       .  A
N1104      O1119   1.262       .  A
N1104      O1120   1.262       .  A
N1106      O1117   1.262       .  A
N1106      O1118   1.262       .  A
C1108      C1109   1.400       .  A
C1108      N1113   1.432       .  S
C1109      C1110   1.406       .  A
C1109      H1114   1.056       .  S
C1110      C1111   1.409       .  A
C1111      C1112   1.410       .  A
C1111      N1115   1.428       .  S
C1112      H1116   1.077       .  S
N1113      O1123   1.262       .  A
N1113      O1124   1.262       .  A
N1115      O1121   1.261       .  A
N1115      O1122   1.261       .  A
C1125      C1126   1.407       .  A
C1125      C1130   1.405       .  A
C1125      H1135   1.083       .  S
C1126      C1131   1.488       .  S
C1126      C1127   1.413       .  A
C1127      C1128   1.398       .  A
C1127      N1132   1.430       .  S
C1128      C1129   1.400       .  A
C1128      H1133   1.084       .  S
C1129      C1130   1.406       .  A
C1130      N1134   1.429       .  S
C1131      C1136   1.411       .  A
C1131      C1140   1.401       .  A
N1132      O1147   1.262       .  A
N1132      O1148   1.262       .  A
N1134      O1145   1.262       .  A
N1134      O1146   1.262       .  A
C1136      C1137   1.408       .  A
C1136      N1141   1.428       .  S
C1137      C1138   1.407       .  A
C1137      H1142   1.083       .  S
C1138      C1139   1.415       .  A
C1139      C1140   1.395       .  A
C1139      N1143   1.430       .  S
C1140      H1144   1.083       .  S
N1141      O1151   1.262       .  A
N1141      O1152   1.262       .  A
N1143      O1149   1.262       .  A
N1143      O1150   1.262       .  A
C1153      C1154   1.401       .  A
C1153      C1158   1.405       .  A
C1153      H1163   1.084       .  S
C1154      C1159   1.484       .  S
C1154      C1155   1.407       .  A
C1155      C1156   1.402       .  A
C1155      N1160   1.429       .  S
C1156      C1157   1.409       .  A
C1156      H1161   1.084       .  S
C1157      C1158   1.418       .  A
C1158      N1162   1.428       .  S
C1159      C1164   1.405       .  A
C1159      C1168   1.407       .  A
N1160      O1175   1.262       .  A
N1160      O1176   1.262       .  A
N1162      O1173   1.262   1_565  A
N1162      O1174   1.262       .  A
C1164      C1165   1.394       .  A
C1164      N1169   1.430       .  S
C1165      C1166   1.403       .  A
C1165      H1170   1.073       .  S
C1166      C1167   1.411       .  A
C1167      C1168   1.411       .  A
C1167      N1171   1.428       .  S
C1168      H1172   1.081       .  S
N1169      O1179   1.262       .  A
N1169      O1180   1.262       .  A
N1171      O1177   1.262       .  A
N1171      O1178   1.262       .  A
C1181      C1182   1.400       .  A
C1181      C1186   1.399       .  A
C1181      H1191   1.083       .  S
C1182      C1187   1.494       .  S
C1182      C1183   1.411       .  A
C1183      C1184   1.409       .  A
C1183      N1188   1.428       .  S
C1184      C1185   1.409       .  A
C1184      H1189   1.083       .  S
C1185      C1186   1.420       .  A
C1186      N1190   1.428       .  S
C1187      C1192   1.413       .  A
C1187      C1196   1.406       .  A
N1188      O1203   1.262       .  A
N1188      O1204   1.262       .  A
N1190      O1201   1.262       .  A
N1190      O1202   1.262       .  A
C1192      C1193   1.402       .  A
C1192      N1197   1.429       .  S
C1193      C1194   1.401       .  A
C1193      H1198   1.080       .  S
C1194      C1195   1.412       .  A
C1195      C1196   1.406       .  A
C1195      N1199   1.430       .  S
C1196      H1200   1.082       .  S
N1197      O1207   1.262       .  A
N1197      O1208   1.262       .  A
N1199      O1205   1.262       .  A
N1199      O1206   1.262       .  A
C1209      C1210   1.396       .  A
C1209      C1214   1.391       .  A
C1209      H1219   1.084       .  S
C1210      C1215   1.480       .  S
C1210      C1211   1.408       .  A
C1211      C1212   1.407       .  A
C1211      N1216   1.428       .  S
C1212      C1213   1.409       .  A
C1212      H1217   1.083       .  S
C1213      C1214   1.421       .  A
C1214      N1218   1.431       .  S
C1215      C1220   1.409       .  A
C1215      C1224   1.403       .  A
N1216      O1231   1.262       .  A
N1216      O1232   1.262   1_565  A
N1218      O1229   1.262       .  A
N1218      O1230   1.262       .  A
C1220      C1221   1.395       .  A
C1220      N1225   1.430       .  S
C1221      C1222   1.403       .  A
C1221      H1226   1.082       .  S
C1222      C1223   1.415       .  A
C1223      C1224   1.405       .  A
C1223      N1227   1.429       .  S
C1224      H1228   1.083       .  S
N1225      O1235   1.262       .  A
N1225      O1236   1.262       .  A
N1227      O1233   1.261       .  A
N1227      O1234   1.262       .  A
C1237      C1238   1.401       .  A
C1237      C1242   1.401       .  A
C1237      H1247   1.084       .  S
C1238      C1243   1.479       .  S
C1238      C1239   1.407       .  A
C1239      C1240   1.398       .  A
C1239      N1244   1.430       .  S
C1240      C1241   1.407       .  A
C1240      H1245   1.082       .  S
C1241      C1242   1.417       .  A
C1242      N1246   1.428       .  S
C1243      C1248   1.408       .  A
C1243      C1252   1.400       .  A
N1244      O1259   1.262       .  A
N1244      O1260   1.262       .  A
N1246      O1257   1.262       .  A
N1246      O1258   1.262       .  A
C1248      C1249   1.400       .  A
C1248      N1253   1.430       .  S
C1249      C1250   1.408       .  A
C1249      H1254   1.083       .  S
C1250      C1251   1.417       .  A
C1251      C1252   1.400       .  A
C1251      N1255   1.428       .  S
C1252      H1256   1.084       .  S
N1253      O1263   1.262       .  A
N1253      O1264   1.262       .  A
N1255      O1261   1.262       .  A
N1255      O1262   1.262       .  A
C1265      C1266   1.402       .  A
C1265      C1270   1.401   1_565  A
C1265      H1275   1.083   1_565  S
C1266      C1271   1.491       .  S
C1266      C1267   1.411       .  A
C1267      C1268   1.404       .  A
C1267      N1272   1.429       .  S
C1268      C1269   1.408   1_565  A
C1268      H1273   1.083       .  S
C1269      C1270   1.419       .  A
C1270      N1274   1.429       .  S
C1271      C1276   1.413       .  A
C1271      C1280   1.405       .  A
N1272      O1287   1.262       .  A
N1272      O1288   1.262       .  A
N1274      O1285   1.262       .  A
N1274      O1286   1.262       .  A
C1276      C1277   1.401       .  A
C1276      N1281   1.429       .  S
C1277      C1278   1.402       .  A
C1277      H1282   1.083       .  S
C1278      C1279   1.413       .  A
C1279      C1280   1.405       .  A
C1279      N1283   1.429       .  S
C1280      H1284   1.083       .  S
N1281      O1291   1.262       .  A
N1281      O1292   1.261       .  A
N1283      O1289   1.262       .  A
N1283      O1290   1.262       .  A
C1293      C1294   1.402       .  A
C1293      C1298   1.406       .  A
C1293      H1303   1.083       .  S
C1294      C1299   1.482       .  S
C1294      C1295   1.405       .  A
C1295      C1296   1.400       .  A
C1295      N1300   1.429       .  S
C1296      C1297   1.409       .  A
C1296      H1301   1.082       .  S
C1297      C1298   1.417       .  A
C1298      N1302   1.429       .  S
C1299      C1304   1.408       .  A
C1299      C1308   1.400       .  A
N1300      O1315   1.262       .  A
N1300      O1316   1.262       .  A
N1302      O1313   1.262       .  A
N1302      O1314   1.262       .  A
C1304      C1305   1.404       .  A
C1304      N1309   1.428       .  S
C1305      C1306   1.407       .  A
C1305      H1310   1.083       .  S
C1306      C1307   1.415       .  A
C1307      C1308   1.402       .  A
C1307      N1311   1.429       .  S
C1308      H1312   1.084       .  S
N1309      O1319   1.262       .  A
N1309      O1320   1.262       .  A
N1311      O1317   1.262       .  A
N1311      O1318   1.262       .  A
C1321      C1322   1.400       .  A
C1321      C1326   1.403       .  A
C1321      H1331   1.084       .  S
C1322      C1327   1.483       .  S
C1322      C1323   1.407       .  A
C1323      C1324   1.402   1_655  A
C1323      N1328   1.428   1_655  S
C1324      C1325   1.408       .  A
C1324      H1329   1.083       .  S
C1325      C1326   1.419   1_455  A
C1326      N1330   1.429       .  S
C1327      C1332   1.408       .  A
C1327      C1336   1.400       .  A
N1328      O1343   1.262       .  A
N1328      O1344   1.262       .  A
N1330      O1341   1.262       .  A
N1330      O1342   1.262       .  A
C1332      C1333   1.403       .  A
C1332      N1337   1.428       .  S
C1333      C1334   1.406       .  A
C1333      H1338   1.083       .  S
C1334      C1335   1.417       .  A
C1335      C1336   1.401       .  A
C1335      N1339   1.430       .  S
C1336      H1340   1.084       .  S
N1337      O1347   1.262       .  A
N1337      O1348   1.262   1_655  A
N1339      O1345   1.262       .  A
N1339      O1346   1.262       .  A
C1349      C1350   1.403       .  A
C1349      C1354   1.405       .  A
C1349      H1359   1.083       .  S
C1350      C1355   1.479       .  S
C1350      C1351   1.408       .  A
C1351      C1352   1.397       .  A
C1351      N1356   1.430       .  S
C1352      C1353   1.404       .  A
C1352      H1357   1.084       .  S
C1353      C1354   1.410       .  A
C1354      N1358   1.428       .  S
C1355      C1360   1.408       .  A
C1355      C1364   1.404       .  A
N1356      O1371   1.262       .  A
N1356      O1372   1.262       .  A
N1358      O1369   1.262       .  A
N1358      O1370   1.262       .  A
C1360      C1361   1.395       .  A
C1360      N1365   1.430       .  S
C1361      C1362   1.401       .  A
C1361      H1366   1.084       .  S
C1362      C1363   1.410       .  A
C1363      C1364   1.407       .  A
C1363      N1367   1.427       .  S
C1364      H1368   1.083       .  S
N1365      O1375   1.262       .  A
N1365      O1376   1.262       .  A
N1367      O1373   1.262       .  A
N1367      O1374   1.262       .  A
C1377      C1378   1.402       .  A
C1377      C1382   1.407       .  A
C1377      H1387   1.083       .  S
C1378      C1383   1.489       .  S
C1378      C1379   1.408       .  A
C1379      C1380   1.402       .  A
C1379      N1384   1.429       .  S
C1380      C1381   1.409       .  A
C1380      H1385   1.083       .  S
C1381      C1382   1.419       .  A
C1382      N1386   1.429       .  S
C1383      C1388   1.410       .  A
C1383      C1392   1.400       .  A
N1384      O1399   1.262       .  A
N1384      O1400   1.262       .  A
N1386      O1397   1.262       .  A
N1386      O1398   1.262       .  A
C1388      C1389   1.407       .  A
C1388      N1393   1.428       .  S
C1389      C1390   1.408       .  A
C1389      H1394   1.083       .  S
C1390      C1391   1.420       .  A
C1391      C1392   1.402       .  A
C1391      N1395   1.429       .  S
C1392      H1396   1.084       .  S
N1393      O1403   1.262       .  A
N1393      O1404   1.262       .  A
N1395      O1401   1.262       .  A
N1395      O1402   1.262       .  A
C1405      C1406   1.404       .  A
C1405      C1410   1.406       .  A
C1405      H1415   1.084       .  S
C1406      C1411   1.493       .  S
C1406      C1407   1.412       .  A
C1407      C1408   1.406       .  A
C1407      N1412   1.429       .  S
C1408      C1409   1.407       .  A
C1408      H1413   1.083       .  S
C1409      C1410   1.413       .  A
C1410      N1414   1.428       .  S
C1411      C1416   1.411       .  A
C1411      C1420   1.404       .  A
N1412      O1427   1.262       .  A
N1412      O1428   1.262       .  A
N1414      O1425   1.262       .  A
N1414      O1426   1.262       .  A
C1416      C1417   1.406   1_545  A
C1416      N1421   1.430   1_545  S
C1417      C1418   1.408       .  A
C1417      H1422   1.083       .  S
C1418      C1419   1.415   1_565  A
C1419      C1420   1.407       .  A
C1419      N1423   1.428       .  S
C1420      H1424   1.083       .  S
N1421      O1431   1.262       .  A
N1421      O1432   1.262   1_565  A
N1423      O1429   1.262       .  A
N1423      O1430   1.262       .  A
C1433      C1434   1.401       .  A
C1433      C1438   1.398   1_455  A
C1433      H1443   1.084       .  S
C1434      C1439   1.484       .  S
C1434      C1435   1.413       .  A
C1435      C1436   1.407       .  A
C1435      N1440   1.428       .  S
C1436      C1437   1.403   1_455  A
C1436      H1441   1.084       .  S
C1437      C1438   1.412       .  A
C1438      N1442   1.430       .  S
C1439      C1444   1.412       .  A
C1439      C1448   1.401       .  A
N1440      O1455   1.262       .  A
N1440      O1456   1.262       .  A
N1442      O1453   1.262       .  A
N1442      O1454   1.262       .  A
C1444      C1445   1.406   1_565  A
C1444      N1449   1.428       .  S
C1445      C1446   1.403       .  A
C1445      H1450   1.083       .  S
C1446      C1447   1.410   1_545  A
C1447      C1448   1.400       .  A
C1447      N1451   1.428       .  S
C1448      H1452   1.084       .  S
N1449      O1459   1.262       .  A
N1449      O1460   1.261       .  A
N1451      O1457   1.262       .  A
N1451      O1458   1.261       .  A
C1461      C1462   1.402       .  A
C1461      C1466   1.403       .  A
C1461      H1471   1.083       .  S
C1462      C1467   1.485       .  S
C1462      C1463   1.407       .  A
C1463      C1464   1.401       .  A
C1463      N1468   1.429       .  S
C1464      C1465   1.408       .  A
C1464      H1469   1.083       .  S
C1465      C1466   1.418       .  A
C1466      N1470   1.429       .  S
C1467      C1472   1.407       .  A
C1467      C1476   1.404       .  A
N1468      O1483   1.262       .  A
N1468      O1484   1.262       .  A
N1470      O1481   1.262       .  A
N1470      O1482   1.262       .  A
C1472      C1473   1.399   1_455  A
C1472      N1477   1.429   1_455  S
C1473      C1474   1.408   1_655  A
C1473      H1478   1.083       .  S
C1474      C1475   1.415       .  A
C1475      C1476   1.405       .  A
C1475      N1479   1.429       .  S
C1476      H1480   1.083       .  S
N1477      O1487   1.262       .  A
N1477      O1488   1.262       .  A
N1479      O1485   1.262       .  A
N1479      O1486   1.262       .  A
C1489      C1490   1.402       .  A
C1489      C1494   1.403       .  A
C1489      H1499   1.084       .  S
C1490      C1495   1.481       .  S
C1490      C1491   1.408       .  A
C1491      C1492   1.403       .  A
C1491      N1496   1.428       .  S
C1492      C1493   1.404       .  A
C1492      H1497   1.083       .  S
C1493      C1494   1.413       .  A
C1494      N1498   1.430       .  S
C1495      C1500   1.409       .  A
C1495      C1504   1.399       .  A
N1496      O1511   1.262       .  A
N1496      O1512   1.261       .  A
N1498      O1509   1.262       .  A
N1498      O1510   1.262       .  A
C1500      C1501   1.405       .  A
C1500      N1505   1.429       .  S
C1501      C1502   1.407   1_565  A
C1501      H1506   1.083       .  S
C1502      C1503   1.416   1_545  A
C1503      C1504   1.400       .  A
C1503      N1507   1.429   1_565  S
C1504      H1508   1.084       .  S
N1505      O1515   1.262       .  A
N1505      O1516   1.262       .  A
N1507      O1513   1.262       .  A
N1507      O1514   1.262   1_545  A
C1517      C1518   1.405       .  A
C1517      C1522   1.410       .  A
C1517      H1527   1.083       .  S
C1518      C1523   1.486       .  S
C1518      C1519   1.407       .  A
C1519      C1520   1.399       .  A
C1519      N1524   1.430       .  S
C1520      C1521   1.408       .  A
C1520      H1525   1.084       .  S
C1521      C1522   1.415       .  A
C1522      N1526   1.428       .  S
C1523      C1528   1.411       .  A
C1523      C1532   1.403       .  A
N1524      O1539   1.262       .  A
N1524      O1540   1.262       .  A
N1526      O1537   1.262       .  A
N1526      O1538   1.262       .  A
C1528      C1529   1.405   1_655  A
C1528      N1533   1.429       .  S
C1529      C1530   1.403       .  A
C1529      H1534   1.084       .  S
C1530      C1531   1.409   1_455  A
C1531      C1532   1.404       .  A
C1531      N1535   1.433       .  S
C1532      H1536   1.084       .  S
N1533      O1543   1.262       .  A
N1533      O1544   1.262       .  A
N1535      O1541   1.263       .  A
N1535      O1542   1.262       .  A
C1545      C1546   1.401       .  A
C1545      C1550   1.395       .  A
C1545      H1555   1.084       .  S
C1546      C1551   1.481       .  S
C1546      C1547   1.408       .  A
C1547      C1548   1.405       .  A
C1547      N1552   1.428       .  S
C1548      C1549   1.405       .  A
C1548      H1553   1.083       .  S
C1549      C1550   1.414       .  A
C1550      N1554   1.433       .  S
C1551      C1556   1.411       .  A
C1551      C1560   1.405   1_545  A
N1552      O1567   1.262       .  A
N1552      O1568   1.262       .  A
N1554      O1565   1.262       .  A
N1554      O1566   1.262       .  A
C1556      C1557   1.396   1_545  A
C1556      N1561   1.430       .  S
C1557      C1558   1.400       .  A
C1557      H1562   1.084       .  S
C1558      C1559   1.408       .  A
C1559      C1560   1.405       .  A
C1559      N1563   1.428       .  S
C1560      H1564   1.083       .  S
N1561      O1571   1.262       .  A
N1561      O1572   1.262       .  A
N1563      O1569   1.262       .  A
N1563      O1570   1.262       .  A
C1573      C1574   1.400       .  A
C1573      C1578   1.391       .  A
C1573      H1583   1.084       .  S
C1574      C1579   1.475   1_455  S
C1574      C1575   1.409       .  A
C1575      C1576   1.405       .  A
C1575      N1580   1.428       .  S
C1576      C1577   1.404       .  A
C1576      H1581   1.083       .  S
C1577      C1578   1.409       .  A
C1578      N1582   1.430       .  S
C1579      C1584   1.408       .  A
C1579      C1588   1.401   1_655  A
N1580      O1595   1.262       .  A
N1580      O1596   1.262       .  A
N1582      O1593   1.262       .  A
N1582      O1594   1.262       .  A
C1584      C1585   1.401       .  A
C1584      N1589   1.429       .  S
C1585      C1586   1.405       .  A
C1585      H1590   1.084       .  S
C1586      C1587   1.413       .  A
C1587      C1588   1.398   1_655  A
C1587      N1591   1.430   1_655  S
C1588      H1592   1.084       .  S
N1589      O1599   1.262       .  A
N1589      O1600   1.262       .  A
N1591      O1597   1.262       .  A
N1591      O1598   1.262       .  A
C1601      C1602   1.400       .  A
C1601      C1606   1.400       .  A
C1601      H1611   1.083       .  S
C1602      C1607   1.476       .  S
C1602      C1603   1.407       .  A
C1603      C1604   1.396       .  A
C1603      N1608   1.429       .  S
C1604      C1605   1.406       .  A
C1604      H1609   1.083       .  S
C1605      C1606   1.418       .  A
C1606      N1610   1.429       .  S
C1607      C1612   1.406       .  A
C1607      C1616   1.399       .  A
N1608      O1623   1.262       .  A
N1608      O1624   1.262       .  A
N1610      O1621   1.262       .  A
N1610      O1622   1.262       .  A
C1612      C1613   1.399       .  A
C1612      N1617   1.428       .  S
C1613      C1614   1.407       .  A
C1613      H1618   1.083       .  S
C1614      C1615   1.417       .  A
C1615      C1616   1.396       .  A
C1615      N1619   1.428       .  S
C1616      H1620   1.084       .  S
N1617      O1627   1.262       .  A
N1617      O1628   1.261       .  A
N1619      O1625   1.262       .  A
N1619      O1626   1.262       .  A
C1629      C1630   1.402       .  A
C1629      C1634   1.400   1_455  A
C1629      H1639   1.084       .  S
C1630      C1635   1.485       .  S
C1630      C1631   1.409       .  A
C1631      C1632   1.402       .  A
C1631      N1636   1.430       .  S
C1632      C1633   1.409       .  A
C1632      H1637   1.083       .  S
C1633      C1634   1.415   1_455  A
C1634      N1638   1.428       .  S
C1635      C1640   1.412       .  A
C1635      C1644   1.401       .  A
N1636      O1651   1.262       .  A
N1636      O1652   1.262       .  A
N1638      O1649   1.262       .  A
N1638      O1650   1.262       .  A
C1640      C1641   1.403       .  A
C1640      N1645   1.430       .  S
C1641      C1642   1.406       .  A
C1641      H1646   1.084       .  S
C1642      C1643   1.415       .  A
C1643      C1644   1.399       .  A
C1643      N1647   1.429       .  S
C1644      H1648   1.084       .  S
N1645      O1655   1.262       .  A
N1645      O1656   1.262       .  A
N1647      O1653   1.262       .  A
N1647      O1654   1.262       .  A
C1657      C1658   1.404       .  A
C1657      C1662   1.407       .  A
C1657      H1667   1.083       .  S
C1658      C1663   1.478       .  S
C1658      C1659   1.409       .  A
C1659      C1660   1.395   1_655  A
C1659      N1664   1.431       .  S
C1660      C1661   1.403       .  A
C1660      H1665   1.084       .  S
C1661      C1662   1.411   1_455  A
C1662      N1666   1.428       .  S
C1663      C1668   1.406       .  A
C1663      C1672   1.401       .  A
N1664      O1679   1.262       .  A
N1664      O1680   1.262       .  A
N1666      O1677   1.262   1_655  A
N1666      O1678   1.261       .  A
C1668      C1669   1.399       .  A
C1668      N1673   1.429       .  S
C1669      C1670   1.407   1_545  A
C1669      H1674   1.083   1_545  S
C1670      C1671   1.416   1_565  A
C1671      C1672   1.401       .  A
C1671      N1675   1.430       .  S
C1672      H1676   1.084       .  S
N1673      O1683   1.262       .  A
N1673      O1684   1.262       .  A
N1675      O1681   1.262       .  A
N1675      O1682   1.262       .  A
C1685      C1686   1.402       .  A
C1685      C1690   1.398   1_545  A
C1685      H1695   1.084       .  S
C1686      C1691   1.474       .  S
C1686      C1687   1.408       .  A
C1687      C1688   1.396       .  A
C1687      N1692   1.429       .  S
C1688      C1689   1.400   1_545  A
C1688      H1693   1.083       .  S
C1689      C1690   1.409       .  A
C1690      N1694   1.430       .  S
C1691      C1696   1.407       .  A
C1691      C1700   1.400       .  A
N1692      O1707   1.262       .  A
N1692      O1708   1.262       .  A
N1694      O1705   1.262       .  A
N1694      O1706   1.262       .  A
C1696      C1697   1.394       .  A
C1696      N1701   1.431       .  S
C1697      C1698   1.407       .  A
C1697      H1702   1.083       .  S
C1698      C1699   1.417       .  A
C1699      C1700   1.403       .  A
C1699      N1703   1.429       .  S
C1700      H1704   1.084       .  S
N1701      O1711   1.262       .  A
N1701      O1712   1.262       .  A
N1703      O1709   1.262       .  A
N1703      O1710   1.262       .  A
C1713      C1714   1.405       .  A
C1713      C1718   1.408       .  A
C1713      H1723   1.083       .  S
C1714      C1719   1.483       .  S
C1714      C1715   1.409       .  A
C1715      C1716   1.396       .  A
C1715      N1720   1.432       .  S
C1716      C1717   1.406       .  A
C1716      H1721   1.084       .  S
C1717      C1718   1.415       .  A
C1718      N1722   1.429       .  S
C1719      C1724   1.412       .  A
C1719      C1728   1.401       .  A
N1720      O1735   1.262       .  A
N1720      O1736   1.262       .  A
N1722      O1733   1.262       .  A
N1722      O1734   1.262       .  A
C1724      C1725   1.403       .  A
C1724      N1729   1.429       .  S
C1725      C1726   1.401       .  A
C1725      H1730   1.084       .  S
C1726      C1727   1.409       .  A
C1727      C1728   1.399       .  A
C1727      N1731   1.429       .  S
C1728      H1732   1.084       .  S
N1729      O1739   1.262       .  A
N1729      O1740   1.262       .  A
N1731      O1737   1.261       .  A
N1731      O1738   1.262       .  A
C1741      C1742   1.407       .  A
C1741      C1746   1.405       .  A
C1741      H1751   1.083       .  S
C1742      C1747   1.496       .  S
C1742      C1743   1.413       .  A
C1743      C1744   1.404       .  A
C1743      N1748   1.429       .  S
C1744      C1745   1.403       .  A
C1744      H1749   1.084       .  S
C1745      C1746   1.411       .  A
C1746      N1750   1.430       .  S
C1747      C1752   1.412       .  A
C1747      C1756   1.405       .  A
N1748      O1763   1.262       .  A
N1748      O1764   1.262       .  A
N1750      O1761   1.262       .  A
N1750      O1762   1.262       .  A
C1752      C1753   1.404       .  A
C1752      N1757   1.429       .  S
C1753      C1754   1.406       .  A
C1753      H1758   1.083       .  S
C1754      C1755   1.416       .  A
C1755      C1756   1.405       .  A
C1755      N1759   1.430       .  S
C1756      H1760   1.083       .  S
N1757      O1767   1.262       .  A
N1757      O1768   1.262       .  A
N1759      O1765   1.262   1_655  A
N1759      O1766   1.262       .  A
C1769      C1770   1.403       .  A
C1769      C1774   1.405       .  A
C1769      H1779   1.084       .  S
C1770      C1775   1.490       .  S
C1770      C1771   1.409       .  A
C1771      C1772   1.404       .  A
C1771      N1776   1.430       .  S
C1772      C1773   1.410       .  A
C1772      H1777   1.083       .  S
C1773      C1774   1.417       .  A
C1774      N1778   1.428   1_545  S
C1775      C1780   1.413       .  A
C1775      C1784   1.403       .  A
N1776      O1791   1.262       .  A
N1776      O1792   1.262       .  A
N1778      O1789   1.262       .  A
N1778      O1790   1.262       .  A
C1780      C1781   1.407       .  A
C1780      N1785   1.429       .  S
C1781      C1782   1.405       .  A
C1781      H1786   1.083       .  S
C1782      C1783   1.413       .  A
C1783      C1784   1.402       .  A
C1783      N1787   1.429       .  S
C1784      H1788   1.084       .  S
N1785      O1795   1.262       .  A
N1785      O1796   1.262       .  A
N1787      O1793   1.262       .  A
N1787      O1794   1.262       .  A
C1797      C1798   1.405       .  A
C1797      C1802   1.400       .  A
C1797      H1807   1.083       .  S
C1798      C1803   1.485       .  S
C1798      C1799   1.409       .  A
C1799      C1800   1.399   1_565  A
C1799      N1804   1.429       .  S
C1800      C1801   1.406       .  A
C1800      H1805   1.083       .  S
C1801      C1802   1.412   1_545  A
C1802      N1806   1.429       .  S
C1803      C1808   1.410       .  A
C1803      C1812   1.406       .  A
N1804      O1819   1.262       .  A
N1804      O1820   1.262       .  A
N1806      O1817   1.262       .  A
N1806      O1818   1.261       .  A
C1808      C1809   1.393       .  A
C1808      N1813   1.430       .  S
C1809      C1810   1.405       .  A
C1809      H1814   1.083       .  S
C1810      C1811   1.413       .  A
C1811      C1812   1.406       .  A
C1811      N1815   1.428       .  S
C1812      H1816   1.083       .  S
N1813      O1823   1.262       .  A
N1813      O1824   1.262       .  A
N1815      O1821   1.262       .  A
N1815      O1822   1.262       .  A
C1825      C1826   1.398   1_655  A
C1825      C1830   1.397   1_655  A
C1825      H1835   1.084       .  S
C1826      C1831   1.476   1_455  S
C1826      C1827   1.408       .  A
C1827      C1828   1.399       .  A
C1827      N1832   1.430       .  S
C1828      C1829   1.406       .  A
C1828      H1833   1.083       .  S
C1829      C1830   1.414       .  A
C1830      N1834   1.428   1_455  S
C1831      C1836   1.408       .  A
C1831      C1840   1.402       .  A
N1832      O1847   1.262       .  A
N1832      O1848   1.262       .  A
N1834      O1845   1.262       .  A
N1834      O1846   1.261       .  A
C1836      C1837   1.393       .  A
C1836      N1841   1.432   1_655  S
C1837      C1838   1.407       .  A
C1837      H1842   1.082       .  S
C1838      C1839   1.415       .  A
C1839      C1840   1.404       .  A
C1839      N1843   1.428       .  S
C1840      H1844   1.083       .  S
N1841      O1851   1.262       .  A
N1841      O1852   1.262       .  A
N1843      O1849   1.261       .  A
N1843      O1850   1.262       .  A
C1853      C1854   1.407       .  A
C1853      C1858   1.410       .  A
C1853      H1863   1.083       .  S
C1854      C1859   1.486   1_565  S
C1854      C1855   1.409       .  A
C1855      C1856   1.397       .  A
C1855      N1860   1.431       .  S
C1856      C1857   1.406       .  A
C1856      H1861   1.084       .  S
C1857      C1858   1.413       .  A
C1858      N1862   1.428       .  S
C1859      C1864   1.412       .  A
C1859      C1868   1.400       .  A
N1860      O1875   1.262       .  A
N1860      O1876   1.262       .  A
N1862      O1873   1.262       .  A
N1862      O1874   1.262       .  A
C1864      C1865   1.407       .  A
C1864      N1869   1.428   1_545  S
C1865      C1866   1.404       .  A
C1865      H1870   1.083       .  S
C1866      C1867   1.411       .  A
C1867      C1868   1.400       .  A
C1867      N1871   1.429       .  S
C1868      H1872   1.084       .  S
N1869      O1879   1.262       .  A
N1869      O1880   1.261       .  A
N1871      O1877   1.262       .  A
N1871      O1878   1.262       .  A
C1881      C1882   1.400       .  A
C1881      C1886   1.397   1_455  A
C1881      H1891   1.084       .  S
C1882      C1887   1.489       .  S
C1882      C1883   1.410       .  A
C1883      C1884   1.409   1_455  A
C1883      N1888   1.428       .  S
C1884      C1885   1.409       .  A
C1884      H1889   1.083       .  S
C1885      C1886   1.419       .  A
C1886      N1890   1.430       .  S
C1887      C1892   1.410       .  A
C1887      C1896   1.404       .  A
N1888      O1903   1.262       .  A
N1888      O1904   1.262       .  A
N1890      O1901   1.262       .  A
N1890      O1902   1.262       .  A
C1892      C1893   1.401       .  A
C1892      N1897   1.430       .  S
C1893      C1894   1.406       .  A
C1893      H1898   1.084       .  S
C1894      C1895   1.415       .  A
C1895      C1896   1.406       .  A
C1895      N1899   1.428       .  S
C1896      H1900   1.083       .  S
N1897      O1907   1.262       .  A
N1897      O1908   1.262       .  A
N1899      O1905   1.262       .  A
N1899      O1906   1.262       .  A
