geometry optimzed in LAMMPS
_audit_creation_date              2020-12-01 
_audit_creation_method            'lammps2cif' 
_symmetry_space_group_name_H-M    'P1' 
_symmetry_Int_Tables_number       1 
_symmetry_cell_setting            triclinic 
loop_ 
_symmetry_equiv_pos_as_xyz 
  x,y,z 
_cell_length_a                    68.894405 
_cell_length_b                    69.84825469315545 
_cell_length_c                    69.65423812853179 
_cell_angle_alpha                 91.24506754667516 
_cell_angle_beta                  90.08911723169496 
_cell_angle_gamma                 88.83466857941183 
loop_ 
_atom_site_label 
_atom_site_type_symbol 
_atom_site_fract_x 
_atom_site_fract_y 
_atom_site_fract_z 
_atom_site_charge 
Zr1        Zr  0.80522710  0.76824089  0.79511276     2.17500
O2          O  0.79409099  0.73716156  0.78353967    -0.51600
O3          O  0.82468629  0.75850163  0.82258640    -0.74800
O4          O  0.83661664  0.75367420  0.78363003    -0.81600
O5          O  0.76889151  0.78324006  0.83470873    -0.83300
O6          O  0.84816607  0.77247686  0.76015532    -0.78900
O7          O  0.78663255  0.75770313  0.82321796    -0.90600
O8          O  0.83990155  0.78560714  0.83270845    -0.76500
O9          O  0.83145772  0.78827267  0.78795639    -0.86000
O10         O  0.80458447  0.79380888  0.81826446    -0.85700
O11         O  0.79840917  0.77979655  0.76294039    -0.72500
O12         O  0.77438803  0.78511700  0.79037182    -0.84600
Zr13       Zr  0.79788244  0.84179980  0.77773130     2.26400
Zr14       Zr  0.82576466  0.79940146  0.75635742     2.06300
Zr15       Zr  0.77458622  0.81009057  0.81443729     2.10000
Zr16       Zr  0.83209850  0.81242192  0.81206057     1.78800
O17         O  0.73992898  0.80426903  0.81592999    -0.93400
O18         O  0.86657777  0.80627125  0.80631063    -0.41200
O19         O  0.80209861  0.83002839  0.80952732    -0.77900
O20         O  0.82813420  0.82451824  0.78043658    -0.96600
O21         O  0.79660272  0.81775958  0.75295963    -0.89900
O22         O  0.76981959  0.82308612  0.78371193    -0.92700
C23         C  0.83545144  0.76792098  0.83436855     1.01100
C24         C  0.77505437  0.76588120  0.83565808     1.14000
C25         C  0.84965046  0.75802402  0.77113744     1.04800
O26         O  0.85780125  0.80197554  0.74202673    -0.94900
O27         O  0.83238067  0.82814924  0.73849811    -0.90600
O28         O  0.81943970  0.85432504  0.75401237    -0.83700
C29         C  0.82980435  0.84635667  0.74069222     1.11400
O30         O  0.75339280  0.77111968  0.74537280    -0.96800
Zr31       Zr  0.76875405  0.79940503  0.75912455     1.88900
O32         O  0.78171979  0.84301635  0.74759116    -0.73500
O33         O  0.81712962  0.78336434  0.72621963    -0.52700
O34         O  0.77311076  0.79698677  0.72445796    -0.97400
O35         O  0.73461564  0.79462292  0.76628941    -0.54600
O36         O  0.75300693  0.83139831  0.75070900    -0.74000
C37         C  0.76366914  0.84608056  0.74822408     0.98400
O38         O  0.80709880  0.87461484  0.78560028    -0.62800
O39         O  0.77655548  0.82001155  0.84813607    -0.57600
O40         O  0.77176743  0.86017864  0.79378225    -0.94300
O41         O  0.75996872  0.84159921  0.81733781    -0.92700
O42         O  0.83211341  0.82611067  0.84446232    -0.93100
O43         O  0.84846353  0.84283565  0.81565594    -0.91900
C44         C  0.76045106  0.85724407  0.80814546     1.17200
H45         H  0.80491970  0.78967113  0.83136439     0.33100
H46         H  0.83893775  0.83261633  0.77765178     0.44000
H47         H  0.75751977  0.82990163  0.78371947     0.37500
H48         H  0.79818246  0.76896022  0.75411892     0.34000
H49         H  0.87273243  0.80795424  0.81907708     0.25800
H50         H  0.81967372  0.79292029  0.71628612     0.31700
H51         H  0.76920161  0.80975212  0.71971024     0.37600
H52         H  0.81952025  0.83310388  0.84568265     0.32100
H53         H  0.76293024  0.82131258  0.85249130     0.31000
H54         H  0.73564413  0.81018958  0.82828111     0.32700
H55         H  0.72760582  0.80560385  0.76053214     0.31600
H56         H  0.83878006  0.85252860  0.81140464     0.35600
H57         H  0.80432820  0.87639568  0.79947329     0.28300
H58         H  0.78833657  0.73119299  0.79490545     0.32600
H59         H  0.76426847  0.76226860  0.74180901     0.35400
H60         H  0.78137016  0.83326932  0.84812117     0.28000
H61         H  0.82145577  0.87450900  0.78493530     0.40900
H62         H  0.86547705  0.80910055  0.75175235     0.31000
H63         H  0.86773083  0.79234114  0.80347833     0.38600
H64         H  0.73349731  0.79698902  0.78028848     0.30400
H65         H  0.82740932  0.77340277  0.72423811     0.30500
H66         H  0.80611026  0.72953189  0.78096589     0.30800
Zr67       Zr  0.79807968  0.92164661  0.94809968     2.17500
O68         O  0.78599666  0.92958203  0.98014253    -0.51600
O69         O  0.82029027  0.89600773  0.95673265    -0.74800
O70         O  0.78469672  0.88997480  0.95724268    -0.81600
O71         O  0.82681715  0.96656295  0.94732564    -0.83300
O72         O  0.76615056  0.88062471  0.93182805    -0.78900
O73         O  0.82688104  0.93811779  0.96195385    -0.90600
O74         O  0.82848856  0.88356473  0.92738472    -0.76500
O75         O  0.79355980  0.89981651  0.92192094    -0.86000
O76         O  0.82334456  0.92756380  0.92538226    -0.85700
O77         O  0.76572389  0.92790478  0.93512408    -0.72500
O78         O  0.79261492  0.95399489  0.93707373    -0.84600
Zr79       Zr  0.78456167  0.94171581  0.87708369     2.26400
Zr80       Zr  0.76211539  0.90560890  0.90862727     2.06300
Zr81       Zr  0.81817014  0.95973251  0.91453514     2.10000
Zr82       Zr  0.81952809  0.90412199  0.90070815     1.78800
O83         O  0.81842698  0.99455388  0.91759668    -0.93400
O84         O  0.81452092  0.87192713  0.88769267    -0.41200
O85         O  0.81627224  0.93618789  0.88948873    -0.77900
O86         O  0.78818538  0.90924738  0.88655997    -0.96600
O87         O  0.75772323  0.93710073  0.89763396    -0.89900
O88         O  0.78691183  0.96560498  0.90153237    -0.92700
C89         C  0.82800817  0.88296374  0.94587983     1.01100
C90         C  0.83432790  0.95467488  0.95898564     1.14000
C91         C  0.77453856  0.87737077  0.94794650     1.04800
O92         O  0.75123641  0.87418968  0.89787444    -0.94900
O93         O  0.74908774  0.90391823  0.87555858    -0.90600
O94         O  0.76144973  0.92681964  0.85677863    -0.83700
C95         C  0.75079133  0.91245354  0.85933418     1.11400
O96         O  0.75251018  0.97157506  0.95505376    -0.96800
Zr97       Zr  0.76107035  0.95991620  0.92290682     1.88900
O98         O  0.76047914  0.96409014  0.86804802    -0.73500
O99         O  0.72946696  0.91024695  0.92148978    -0.52700
O100        O  0.72736651  0.95383077  0.93080318    -0.97400
O101        O  0.76444300  0.99430294  0.92813472    -0.54600
O102        O  0.74345524  0.97338085  0.89476005    -0.74000
C103        C  0.74665815  0.97320107  0.87643962     0.98400
O104        O  0.79990528  0.93186454  0.84693608    -0.62800
O105        O  0.85350962  0.95987551  0.91469761    -0.57600
O106        O  0.79957343  0.96925882  0.86471430    -0.94300
O107        O  0.82681339  0.97107035  0.88255045    -0.92700
O108        O  0.85479473  0.90582024  0.90136077    -0.93100
O109        O  0.83262687  0.89898671  0.86846910    -0.91900
C110        C  0.81723288  0.97381410  0.86693047     1.17200
H111        H  0.83621203  0.92588883  0.93067800     0.33100
H112        H  0.78684454  0.90060190  0.87563921     0.44000
H113        H  0.78570777  0.97838012  0.89658070     0.37500
H114        H  0.75614204  0.92556235  0.94486677     0.34000
H115        H  0.82647514  0.86462548  0.89104909     0.25800
H116        H  0.72192998  0.91587543  0.91081442     0.31700
H117        H  0.72056145  0.96632786  0.92926854     0.37600
H118        H  0.85757947  0.91892787  0.89714630     0.32100
H119        H  0.85734661  0.95486706  0.90181996     0.31000
H120        H  0.81266987  0.99931235  0.90552766     0.32700
H121        H  0.76259366  0.99999051  0.91534905     0.31600
H122        H  0.83839255  0.91134285  0.86510765     0.35600
H123        H  0.81396397  0.93345309  0.84921530     0.28300
H124        H  0.79190379  0.91962272  0.98834306     0.32600
H125        H  0.75440009  0.96030759  0.96329040     0.35400
H126        H  0.85677177  0.97361297  0.91458328     0.28000
H127        H  0.79834269  0.91780889  0.84609524     0.40900
H128        H  0.76259727  0.86833970  0.89110960     0.31000
H129        H  0.80432304  0.86662501  0.89592523     0.38600
H130        H  0.77839390  0.99595112  0.93101833     0.30400
H131        H  0.72444761  0.89713491  0.92258985     0.30500
H132        H  0.77205533  0.92643543  0.97960484     0.30800
Zr133      Zr  0.95920892  0.91183483  0.80340598     2.17500
O134        O  0.99039834  0.92734034  0.80059700    -0.51600
O135        O  0.96830991  0.88517506  0.82382842    -0.74800
O136        O  0.96637291  0.92380687  0.83640514    -0.81600
O137        O  0.96343235  0.88232638  0.75831633    -0.83300
O138        O  0.93788971  0.93559039  0.84871800    -0.78900
O139        O  0.97982044  0.88823537  0.78599465    -0.90600
O140        O  0.94085999  0.86777898  0.82540768    -0.76500
O141        O  0.93195922  0.90811677  0.82359972    -0.86000
O142        O  0.93988863  0.88684977  0.78986392    -0.85700
O143        O  0.94181819  0.94232597  0.80214839    -0.72500
O144        O  0.94948090  0.92286392  0.77171801    -0.84600
Zr145      Zr  0.88612104  0.92119430  0.77988293     2.26400
Zr146      Zr  0.91492554  0.93786165  0.82303834     2.06300
Zr147      Zr  0.93120923  0.89696171  0.75850810     2.10000
Zr148      Zr  0.91319643  0.88298314  0.81057074     1.78800
O149        O  0.94445560  0.90919767  0.72890209    -0.93400
O150        O  0.90404407  0.88044285  0.84420211    -0.41200
O151        O  0.90387107  0.89153349  0.77885110    -0.77900
O152        O  0.89508271  0.91236779  0.81162407    -0.96600
O153        O  0.90386359  0.94734405  0.79237053    -0.89900
O154        O  0.91211531  0.92576330  0.75816906    -0.92700
C155        C  0.95881859  0.87060999  0.82919432     1.01100
C156        C  0.97766009  0.87921024  0.76986726     1.14000
C157        C  0.95573265  0.93060484  0.85035036     1.04800
O158        O  0.89568669  0.93119657  0.85132640    -0.94900
O159        O  0.88582727  0.95680362  0.82077277    -0.90600
O160        O  0.86559761  0.94304948  0.79904724    -0.83700
C161        C  0.86932127  0.95535770  0.81246842     1.11400
O162        O  0.95892276  0.96906475  0.76389012    -0.96800
Zr163      Zr  0.92935035  0.95203756  0.77096248     1.88900
O164        O  0.87454044  0.94553890  0.75948852    -0.73500
O165        O  0.92425209  0.96923582  0.83544357    -0.52700
O166        O  0.93223548  0.98351680  0.78629436    -0.97400
O167        O  0.93509004  0.95573225  0.73664933    -0.54600
O168        O  0.89785881  0.96810705  0.76040871    -0.74000
C169        C  0.88040281  0.96233132  0.75641286     0.98400
O170        O  0.85473641  0.90662983  0.78480441    -0.62800
O171        O  0.93100156  0.86428862  0.74570688    -0.57600
O172        O  0.87803605  0.90394359  0.75062644    -0.94300
O173        O  0.90436482  0.88867483  0.73737927    -0.92700
O174        O  0.91264190  0.84970071  0.79941030    -0.93100
O175        O  0.88121999  0.86900667  0.81259026    -0.91900
C176        C  0.88616369  0.89289722  0.73784320     1.17200
H177        H  0.94654400  0.87457229  0.78927351     0.33100
H178        H  0.88363463  0.91130214  0.81948743     0.44000
H179        H  0.90728924  0.92820594  0.74541201     0.37500
H180        H  0.94995363  0.95226700  0.80741629     0.34000
H181        H  0.91486363  0.88623074  0.85151727     0.25800
H182        H  0.91972874  0.97832599  0.82561433     0.31700
H183        H  0.91884984  0.98714669  0.79027431     0.37600
H184        H  0.90921683  0.85035812  0.78562458     0.32100
H185        H  0.94018838  0.86394278  0.73478270     0.31000
H186        H  0.95232606  0.89840139  0.72340554     0.32700
H187        H  0.93548542  0.96974155  0.73483698     0.31600
H188        H  0.87577586  0.87001307  0.79947880     0.35600
H189        H  0.84581150  0.91347909  0.77602482     0.28300
H190        H  0.98701988  0.94065919  0.79709870     0.32600
H191        H  0.96937781  0.96156439  0.77019820     0.35400
H192        H  0.93722401  0.85627198  0.75562155     0.28000
H193        H  0.85601766  0.89353283  0.77916638     0.40900
H194        H  0.89521940  0.94341959  0.85879196     0.31000
H195        H  0.89304165  0.88962697  0.84605422     0.38600
H196        H  0.92293975  0.95194579  0.73014412     0.30400
H197        H  0.91555509  0.97182088  0.84654448     0.30500
H198        H  0.99643885  0.92164564  0.78886018     0.30800
Zr199      Zr  0.88891384  0.77533034  0.94269067     2.17500
O200        O  0.85423345  0.77166917  0.94845388    -0.51600
O201        O  0.88825679  0.75119726  0.96714846    -0.74800
O202        O  0.87305662  0.75893638  0.91598798    -0.81600
O203        O  0.89011978  0.82281299  0.96742845    -0.83300
O204        O  0.89518334  0.74832009  0.89397915    -0.78900
O205        O  0.86900296  0.80036375  0.95698941    -0.90600
O206        O  0.91197432  0.73034950  0.95976581    -0.76500
O207        O  0.91311980  0.75186931  0.93488884    -0.86000
O208        O  0.91225973  0.77822289  0.96795950    -0.85700
O209        O  0.90068371  0.78455773  0.91173151    -0.72500
O210        O  0.90090656  0.80716810  0.94094273    -0.84600
Zr211      Zr  0.96191468  0.79490471  0.92770415     2.26400
Zr212      Zr  0.92562025  0.76094009  0.90482800     2.06300
Zr213      Zr  0.92390303  0.81005711  0.96599877     2.10000
Zr214      Zr  0.93690348  0.75478321  0.95964165     1.78800
O215        O  0.91884636  0.84013595  0.98393517    -0.93400
O216        O  0.95548542  0.72567572  0.95159609    -0.41200
O217        O  0.94927471  0.78688343  0.95881380    -0.77900
O218        O  0.95043481  0.76264672  0.92903105    -0.96600
O219        O  0.93775828  0.79241079  0.90350221    -0.89900
O220        O  0.93719511  0.81843296  0.93549650    -0.92700
C221        C  0.89426794  0.73407367  0.96417262     1.01100
C222        C  0.87277718  0.81708626  0.96349001     1.14000
C223        C  0.87772441  0.75097446  0.89981703     1.04800
O224        O  0.93328509  0.72681342  0.90364535    -0.94900
O225        O  0.95532384  0.75865998  0.88718430    -0.90600
O226        O  0.97781309  0.77856193  0.90010152    -0.83700
C227        C  0.97207064  0.76613273  0.88746357     1.11400
O228        O  0.88315442  0.83393262  0.90890123    -0.96800
Zr229      Zr  0.91373101  0.81598125  0.91089974     1.88900
O230        O  0.96915162  0.81648912  0.90198347    -0.73500
O231        O  0.91909213  0.76317691  0.87050483    -0.52700
O232        O  0.89837283  0.81481941  0.87941487    -0.97400
O233        O  0.91597171  0.85055512  0.91659681    -0.54600
O234        O  0.93956634  0.82288902  0.88894779    -0.74000
C235        C  0.95814966  0.82272107  0.88854997     0.98400
O236        O  0.99472107  0.78653447  0.93807109    -0.62800
O237        O  0.92666250  0.79946219  0.99906709    -0.57600
O238        O  0.97557529  0.82149246  0.94603101    -0.94300
O239        O  0.95291205  0.82919767  0.96884264    -0.92700
O240        O  0.93100523  0.75103316  0.99380401    -0.93100
O241        O  0.96667838  0.75094648  0.97815209    -0.91900
C242        C  0.96914913  0.83176640  0.96026031     1.17200
H243        H  0.90665147  0.77638587  0.98045851     0.33100
H244        H  0.96092177  0.75372319  0.92589518     0.44000
H245        H  0.94198636  0.83126575  0.93532678     0.37500
H246        H  0.89059877  0.78467028  0.90210881     0.34000
H247        H  0.95260763  0.71682675  0.96208947     0.25800
H248        H  0.92596261  0.75203397  0.86441908     0.31700
H249        H  0.90128266  0.80175753  0.87428090     0.37600
H250        H  0.93144668  0.73701376  0.99564505     0.32100
H251        H  0.93828783  0.80588605  0.00425975     0.31000
H252        H  0.92591217  0.83866482  0.99621438     0.32700
H253        H  0.92955216  0.85382374  0.91366212     0.31600
H254        H  0.97643379  0.75824524  0.97107359     0.35600
H255        H  0.99586529  0.77249329  0.93594382     0.28300
H256        H  0.85247081  0.75782830  0.95038350     0.32600
H257        H  0.87973079  0.83725618  0.92238738     0.35400
H258        H  0.91557229  0.80575977  0.00587674     0.28000
H259        H  0.00326760  0.79195990  0.92824166     0.40900
H260        H  0.92232827  0.72085293  0.91029642     0.31000
H261        H  0.94879064  0.72013526  0.94025221     0.38600
H262        H  0.91467011  0.85254222  0.93066358     0.30400
H263        H  0.92636107  0.77443569  0.86634941     0.30500
H264        H  0.84750543  0.77438536  0.93621746     0.30800
Zr265      Zr  0.30056749  0.47155465  0.94035324     2.17500
O266        O  0.28262200  0.50081382  0.94911673    -0.51600
O267        O  0.32193889  0.48573564  0.91802497    -0.74800
O268        O  0.32838118  0.48722764  0.95766528    -0.81600
O269        O  0.27857708  0.44812615  0.89399518    -0.83300
O270        O  0.32500362  0.47854719  0.98811955    -0.78900
O271        O  0.28680234  0.47704410  0.90690238    -0.90600
O272        O  0.34698266  0.46393042  0.91554875    -0.76500
O273        O  0.32854552  0.45662459  0.95399893    -0.86000
O274        O  0.31075817  0.44645854  0.91885793    -0.85700
O275        O  0.29122370  0.45899452  0.97144945    -0.72500
O276        O  0.27394965  0.44945068  0.93935040    -0.84600
Zr277      Zr  0.30572990  0.39886454  0.96048811     2.26400
Zr278      Zr  0.32030191  0.44447762  0.98485590     2.06300
Zr279      Zr  0.28506177  0.42452629  0.91766365     2.10000
Zr280      Zr  0.33983928  0.43362211  0.93161603     1.78800
O281        O  0.25104972  0.42337694  0.90826411    -0.93400
O282        O  0.36958816  0.44241559  0.94833021    -0.41200
O283        O  0.31449690  0.41055923  0.92959299    -0.77900
O284        O  0.33213995  0.42059007  0.96232236    -0.96600
O285        O  0.29457622  0.42235512  0.98326980    -0.89900
O286        O  0.27653802  0.41200516  0.94748242    -0.92700
C287        C  0.33845707  0.48004337  0.91159811     1.01100
C288        C  0.28081607  0.46614129  0.89266052     1.14000
C289        C  0.33440178  0.48720798  0.97535512     1.04800
O290        O  0.35301499  0.44991815  0.99682759    -0.94900
O291        O  0.33232774  0.41766422  0.00441459    -0.90600
O292        O  0.32235419  0.39049745  0.98928056    -0.83700
C293        C  0.33085100  0.39929436  0.00306509     1.11400
O294        O  0.24540279  0.46357456  0.97816226    -0.96800
Zr295      Zr  0.26557884  0.43557728  0.96988882     1.88900
O296        O  0.28187401  0.38905627  0.98325988    -0.73500
O297        O  0.30634762  0.45268416  0.01614102    -0.52700
O298        O  0.25951173  0.43705690  0.00430513    -0.97400
O299        O  0.23319097  0.43496668  0.95588616    -0.54600
O300        O  0.25350220  0.40243273  0.97533219    -0.74000
C301        C  0.26388231  0.38749495  0.97951796     0.98400
O302        O  0.32689729  0.37052415  0.95774604    -0.62800
O303        O  0.29770962  0.41238488  0.88700684    -0.57600
O304        O  0.29149371  0.37453422  0.94031280    -0.94300
O305        O  0.27890099  0.39078934  0.91500499    -0.92700
O306        O  0.34972706  0.42558213  0.89884491    -0.93100
O307        O  0.36106835  0.40552549  0.92726371    -0.91900
C308        C  0.28243020  0.37548320  0.92433318     1.17200
H309        H  0.31346580  0.45073524  0.90607649     0.33100
H310        H  0.34360533  0.41421788  0.96730409     0.44000
H311        H  0.26649341  0.40286049  0.94507195     0.37500
H312        H  0.28704581  0.46957388  0.97974092     0.34000
H313        H  0.37747844  0.43047065  0.94924373     0.25800
H314        H  0.30804250  0.44096158  0.02375138     0.31700
H315        H  0.24766905  0.42947596  0.00600509     0.37600
H316        H  0.36255485  0.43151257  0.89744425     0.32100
H317        H  0.28734339  0.40427917  0.88156811     0.31000
H318        H  0.24510887  0.43528233  0.91379879     0.32700
H319        H  0.22458408  0.43173970  0.96666988     0.31600
H320        H  0.35394713  0.39502275  0.93323130     0.35600
H321        H  0.31916692  0.35974867  0.96233647     0.28300
H322        H  0.27496690  0.50392213  0.93751308     0.32600
H323        H  0.25067968  0.47396344  0.97038127     0.35400
H324        H  0.30827059  0.40323209  0.89036474     0.28000
H325        H  0.32843833  0.36804197  0.94378334     0.40900
H326        H  0.36158217  0.44200424  0.98831034     0.31000
H327        H  0.37664082  0.45031095  0.93912413     0.38600
H328        H  0.23328317  0.42337602  0.94744531     0.30400
H329        H  0.31548192  0.46185271  0.02204408     0.30500
H330        H  0.29263981  0.51077142  0.94985086     0.30800
Zr331      Zr  0.41496449  0.43810832  0.78595209     2.17500
O332        O  0.43300331  0.44076958  0.75608567    -0.51600
O333        O  0.38950605  0.41578478  0.77644853    -0.74800
O334        O  0.43104054  0.40637682  0.77980103    -0.81600
O335        O  0.39727526  0.48610666  0.77700482    -0.83300
O336        O  0.44415878  0.39618611  0.80793035    -0.78900
O337        O  0.39286086  0.45661349  0.76510698    -0.90600
O338        O  0.36736001  0.41612290  0.80068458    -0.76500
O339        O  0.40794498  0.41897169  0.81274800    -0.86000
O340        O  0.38746187  0.45277907  0.80197259    -0.85700
O341        O  0.44357716  0.43958201  0.80611992    -0.72500
O342        O  0.42498156  0.46984556  0.79653730    -0.84600
Zr343      Zr  0.41631254  0.46515472  0.85812511     2.26400
Zr344      Zr  0.43597835  0.42003307  0.83276632     2.06300
Zr345      Zr  0.39681085  0.48444260  0.81162675     2.10000
Zr346      Zr  0.38028247  0.43325078  0.82813600     1.78800
O347        O  0.40405137  0.51780123  0.80579923    -0.93400
O348        O  0.37533698  0.40093718  0.83943415    -0.41200
O349        O  0.38835457  0.46499507  0.83800842    -0.77900
O350        O  0.40785353  0.43319166  0.84876463    -0.96600
O351        O  0.44479233  0.45113023  0.84408380    -0.89900
O352        O  0.42439247  0.48529232  0.83234673    -0.92700
C353        C  0.37331073  0.41088832  0.78394720     1.01100
C354        C  0.38805847  0.47452155  0.76610395     1.14000
C355        C  0.44064259  0.39399779  0.78990858     1.04800
O356        O  0.42410749  0.39000978  0.84489598    -0.94900
O357        O  0.44324176  0.41968011  0.86673845    -0.90600
O358        O  0.42927442  0.44502251  0.88290191    -0.83700
C359        C  0.43877545  0.42909133  0.88222875     1.11400
O360        O  0.47401868  0.47756975  0.79176280    -0.96800
Zr361      Zr  0.45245068  0.47090758  0.81834416     1.88900
O362        O  0.44201328  0.48273956  0.87206064    -0.73500
O363        O  0.47008560  0.41035969  0.83482093    -0.52700
O364        O  0.48367345  0.45396540  0.81909468    -0.97400
O365        O  0.45696854  0.50437234  0.81054115    -0.54600
O366        O  0.46587558  0.48309108  0.84956498    -0.74000
C367        C  0.45911992  0.48653772  0.86667362     0.98400
O368        O  0.39411280  0.46664314  0.88530306    -0.62800
O369        O  0.36310510  0.49157918  0.80335767    -0.57600
O370        O  0.40373278  0.49721899  0.86317371    -0.94300
O371        O  0.38190932  0.50062837  0.83945117    -0.92700
O372        O  0.34802707  0.44742927  0.82396862    -0.93100
O373        O  0.36127975  0.43331613  0.85756756    -0.91900
C374        C  0.38734887  0.50315493  0.85698242     1.17200
H375        H  0.37581146  0.45322960  0.79426862     0.33100
H376        H  0.40487471  0.42582869  0.85991668     0.44000
H377        H  0.42709148  0.49818422  0.83667122     0.37500
H378        H  0.45450621  0.43396277  0.79915428     0.34000
H379        H  0.36135081  0.39863322  0.83731924     0.25800
H380        H  0.47585013  0.41427242  0.82253538     0.31700
H381        H  0.49220741  0.46240017  0.82679741     0.37600
H382        H  0.33965238  0.43647724  0.82080230     0.32100
H383        H  0.35538878  0.48375112  0.81209781     0.31000
H384        H  0.41016535  0.52255856  0.81780446     0.32700
H385        H  0.45621486  0.51149812  0.82296993     0.31600
H386        H  0.36019740  0.44696678  0.86165391     0.35600
H387        H  0.40237510  0.46749441  0.89691365     0.28300
H388        H  0.44571352  0.44584979  0.76015980     0.32600
H389        H  0.46590887  0.47579932  0.78013729     0.35400
H390        H  0.36071849  0.50494687  0.80789177     0.28000
H391        H  0.38839189  0.45378335  0.88556409     0.40900
H392        H  0.43582291  0.38327599  0.84980476     0.31000
H393        H  0.38202070  0.39244466  0.82987017     0.38600
H394        H  0.44496795  0.50816414  0.80363894     0.30400
H395        H  0.47570097  0.41918655  0.84455224     0.30500
H396        H  0.42667445  0.45146526  0.74920455     0.30800
Zr397      Zr  0.28731417  0.26591821  0.80913834     2.17500
O398        O  0.27175449  0.23763050  0.79573534    -0.51600
O399        O  0.30903407  0.25098534  0.83254467    -0.74800
O400        O  0.31313515  0.24985066  0.78940285    -0.81600
O401        O  0.24428595  0.27815006  0.83821052    -0.83300
O402        O  0.32403738  0.27315164  0.77006849    -0.78900
O403        O  0.26645338  0.25444156  0.83577116    -0.90600
O404        O  0.33202942  0.27044162  0.82418370    -0.76500
O405        O  0.31520599  0.28470585  0.80239832    -0.86000
O406        O  0.29271951  0.28613275  0.83687374    -0.85700
O407        O  0.28039371  0.28523609  0.78087261    -0.72500
O408        O  0.25891964  0.28692122  0.81084428    -0.84600
Zr409      Zr  0.28694613  0.34324939  0.80833660     2.26400
Zr410      Zr  0.30862171  0.30416576  0.77541583     2.06300
Zr411      Zr  0.26421469  0.30595151  0.83926855     2.10000
Zr412      Zr  0.32172293  0.30309911  0.83020430     1.78800
O413        O  0.23412269  0.31231233  0.85672118    -0.93400
O414        O  0.35568825  0.30599055  0.82116874    -0.41200
O415        O  0.29365346  0.32304502  0.83494743    -0.77900
O416        O  0.31557874  0.32321233  0.80364269    -0.96600
O417        O  0.28148864  0.32568496  0.77905824    -0.89900
O418        O  0.25771416  0.32605720  0.81261481    -0.92700
C419        C  0.32597077  0.25761073  0.83520534     1.01100
C420        C  0.25093125  0.26201271  0.84352261     1.14000
C421        C  0.32456557  0.25597626  0.77627596     1.04800
O422        O  0.33894767  0.30233305  0.75744045    -0.94900
O423        O  0.32423923  0.33408725  0.76721868    -0.90600
O424        O  0.31061753  0.35669367  0.78718609    -0.83700
C425        C  0.32249523  0.35134109  0.77384726     1.11400
O426        O  0.23040741  0.28458972  0.77089341    -0.96800
Zr427      Zr  0.25319605  0.30763789  0.78400296     1.88900
O428        O  0.25958001  0.36055038  0.79491859    -0.73500
O429        O  0.29404646  0.30195672  0.74360212    -0.52700
O430        O  0.25358413  0.30398364  0.74916346    -0.97400
O431        O  0.21969105  0.31167502  0.79485051    -0.54600
O432        O  0.24461635  0.34039747  0.77390416    -0.74000
C433        C  0.24777697  0.35718830  0.78113638     0.98400
O434        O  0.29153430  0.37714696  0.81592307    -0.62800
O435        O  0.27483696  0.29907637  0.87192301    -0.57600
O436        O  0.28588083  0.35235678  0.84230424    -0.94300
O437        O  0.25782449  0.33880675  0.84797382    -0.92700
O438        O  0.32784692  0.29535880  0.86358724    -0.93100
O439        O  0.34063214  0.32918336  0.84377105    -0.91900
C440        C  0.27224138  0.34826987  0.85385950     1.17200
H441        H  0.29406392  0.27882610  0.84832090     0.33100
H442        H  0.32736678  0.33031035  0.80254871     0.44000
H443        H  0.24653060  0.33433243  0.81501454     0.37500
H444        H  0.27832066  0.27678803  0.76993169     0.34000
H445        H  0.36294339  0.29794940  0.83038735     0.25800
H446        H  0.29907629  0.31308494  0.73673575     0.31700
H447        H  0.25600864  0.31697812  0.74441639     0.37600
H448        H  0.31493704  0.29534963  0.86977594     0.32100
H449        H  0.27078069  0.31037641  0.87984906     0.31000
H450        H  0.23721282  0.31057158  0.87045575     0.32700
H451        H  0.21701793  0.32565731  0.79498009     0.31600
H452        H  0.33593523  0.34070289  0.83699194     0.35600
H453        H  0.30561465  0.37841711  0.81840244     0.28300
H454        H  0.28244699  0.22821879  0.79328148     0.32600
H455        H  0.23716778  0.27202795  0.77211151     0.35400
H456        H  0.26637907  0.28868134  0.87614738     0.28000
H457        H  0.28917567  0.38395460  0.80379049     0.40900
H458        H  0.33516911  0.30335031  0.74377550     0.31000
H459        H  0.35688846  0.29893316  0.80873139     0.38600
H460        H  0.22002167  0.30827732  0.80857924     0.30400
H461        H  0.30053267  0.29068008  0.73736381     0.30500
H462        H  0.26735796  0.24147550  0.78281450     0.30800
Zr463      Zr  0.40625025  0.27407496  0.93517938     2.17500
O464        O  0.42302128  0.24377228  0.94122764    -0.51600
O465        O  0.38502584  0.26452878  0.90884788    -0.74800
O466        O  0.37946178  0.25597996  0.94981616    -0.81600
O467        O  0.43609852  0.29687296  0.89541013    -0.83300
O468        O  0.38303192  0.26552692  0.98028369    -0.78900
O469        O  0.42284636  0.26860006  0.90347396    -0.90600
O470        O  0.36188439  0.28820509  0.90732088    -0.76500
O471        O  0.37754572  0.28991060  0.94734678    -0.86000
O472        O  0.40060375  0.30117527  0.91583929    -0.85700
O473        O  0.41352111  0.28440478  0.96808570    -0.72500
O474        O  0.43441463  0.29409548  0.93979009    -0.84600
Zr475      Zr  0.40467033  0.34587318  0.96189441     2.26400
Zr476      Zr  0.38423257  0.29997246  0.97983846     2.06300
Zr477      Zr  0.42817324  0.32078069  0.91953146     2.10000
Zr478      Zr  0.37137332  0.31587320  0.92682513     1.78800
O479        O  0.46295885  0.32082202  0.91354384    -0.93400
O480        O  0.33778779  0.31198451  0.93681430    -0.41200
O481        O  0.39864886  0.33658154  0.92935670    -0.77900
O482        O  0.37674118  0.32624882  0.95940442    -0.96600
O483        O  0.41110573  0.32065389  0.98344839    -0.89900
O484        O  0.43423398  0.33115705  0.95141927    -0.92700
C485        C  0.36954752  0.27210601  0.90173604     1.01100
C486        C  0.43189374  0.27946138  0.89163094     1.14000
C487        C  0.37392929  0.25598133  0.96749552     1.04800
O488        O  0.34917980  0.29697770  0.98281914    -0.94900
O489        O  0.37484667  0.32555557  0.00269553    -0.90600
O490        O  0.38714763  0.35280221  0.99087032    -0.83700
C491        C  0.37758102  0.34370834  0.00334730     1.11400
O492        O  0.45859188  0.27677441  0.97991977    -0.96800
Zr493      Zr  0.44026884  0.30584036  0.97239595     1.88900
O494        O  0.42796068  0.35910821  0.98354615    -0.73500
O495        O  0.38920775  0.28813978  0.01216893    -0.52700
O496        O  0.43867520  0.29933834  0.00656638    -0.97400
O497        O  0.47452101  0.30552990  0.96369538    -0.54600
O498        O  0.45239342  0.33688446  0.98608019    -0.74000
C499        C  0.44503785  0.35397736  0.98870046     0.98400
O500        O  0.38457820  0.37442668  0.95660728    -0.62800
O501        O  0.41881528  0.33449245  0.88899026    -0.57600
O502        O  0.42228427  0.36928712  0.94444702    -0.94300
O503        O  0.43761299  0.35391413  0.91952309    -0.92700
O504        O  0.36928147  0.32574428  0.89354066    -0.93100
O505        O  0.35269133  0.34544820  0.92259795    -0.91900
C506        C  0.43343088  0.36892514  0.92968937     1.17200
H507        H  0.39899349  0.29777243  0.90244066     0.33100
H508        H  0.36541067  0.33323856  0.96410288     0.44000
H509        H  0.44507784  0.33969571  0.95167273     0.37500
H510        H  0.41662275  0.27325238  0.97558207     0.34000
H511        H  0.33728691  0.29871934  0.94149772     0.25800
H512        H  0.39766584  0.29763846  0.01856740     0.31700
H513        H  0.45151005  0.30304255  0.01168430     0.37600
H514        H  0.35682804  0.32068202  0.88873127     0.32100
H515        H  0.40759681  0.32683758  0.88480401     0.31000
H516        H  0.46415708  0.32576341  0.90039518     0.32700
H517        H  0.47932206  0.31829476  0.96759809     0.31600
H518        H  0.36253825  0.35545031  0.92118176     0.35600
H519        H  0.37110020  0.36977349  0.95628415     0.28300
H520        H  0.41255697  0.23431770  0.94207025     0.32600
H521        H  0.45875212  0.26915943  0.96775698     0.35400
H522        H  0.41301559  0.34722840  0.89224599     0.28000
H523        H  0.38536886  0.38220790  0.96862293     0.40900
H524        H  0.34620431  0.30065789  0.99631749     0.31000
H525        H  0.33619904  0.32016456  0.94851611     0.38600
H526        H  0.47453302  0.30559968  0.94948858     0.30400
H527        H  0.37646113  0.28988399  0.01858878     0.30500
H528        H  0.42795107  0.24513257  0.95453702     0.30800
Zr529      Zr  0.53168414  0.22531716  0.55263954     2.17500
O530        O  0.52266907  0.25864457  0.54713471    -0.51600
O531        O  0.55977577  0.22988696  0.57364902    -0.74800
O532        O  0.51979399  0.23760673  0.58425597    -0.81600
O533        O  0.56706770  0.21390553  0.51267087    -0.83300
O534        O  0.49393832  0.21964030  0.59204646    -0.78900
O535        O  0.55795255  0.23799702  0.53355381    -0.90600
O536        O  0.56686680  0.20052161  0.58559687    -0.76500
O537        O  0.52199873  0.20278315  0.57545615    -0.86000
O538        O  0.55343095  0.19851984  0.54858053    -0.85700
O539        O  0.49850024  0.21778052  0.54409619    -0.72500
O540        O  0.52710442  0.21250760  0.52032502    -0.84600
Zr541      Zr  0.50804344  0.15490191  0.53523390     2.26400
Zr542      Zr  0.48922319  0.19510963  0.56743995     2.06300
Zr543      Zr  0.54866520  0.18538066  0.51719667     2.10000
Zr544      Zr  0.54472992  0.17703547  0.57279491     1.78800
O545        O  0.54888140  0.18887636  0.48248482    -0.93400
O546        O  0.53904042  0.17692948  0.60730746    -0.41200
O547        O  0.54085391  0.16329929  0.54157029    -0.77900
O548        O  0.51176724  0.16833708  0.56709648    -0.96600
O549        O  0.48504813  0.18086414  0.53641902    -0.89900
O550        O  0.51653958  0.17600283  0.51020523    -0.92700
C551        C  0.57008612  0.21840033  0.58388309     1.01100
C552        C  0.56872754  0.23077886  0.52006044     1.14000
C553        C  0.50597116  0.23296754  0.59568496     1.04800
O554        O  0.46878083  0.19595885  0.59597300    -0.94900
O555        O  0.47243643  0.16583825  0.57496690    -0.90600
O556        O  0.48671154  0.14093764  0.55860892    -0.83700
C557        C  0.47542791  0.14782201  0.57175957     1.11400
O558        O  0.48605824  0.23501389  0.50260717    -0.96800
Zr559      Zr  0.49466068  0.20275517  0.51259655     1.88900
O560        O  0.48790357  0.15011830  0.50769509    -0.73500
O561        O  0.46006780  0.21117936  0.55552555    -0.52700
O562        O  0.45981493  0.20914698  0.51440622    -0.97400
O563        O  0.50458256  0.21010911  0.48003489    -0.54600
O564        O  0.48026380  0.17761740  0.49236804    -0.74000
C565        C  0.47979803  0.15937839  0.49418123     0.98400
O566        O  0.50074588  0.12099963  0.53251859    -0.62800
O567        O  0.58299721  0.17603505  0.51734845    -0.57600
O568        O  0.53584644  0.13492350  0.52549766    -0.94300
O569        O  0.55427624  0.15257860  0.50612151    -0.92700
O570        O  0.57693678  0.16259646  0.56844878    -0.93100
O571        O  0.54771069  0.14473336  0.58505507    -0.91900
C572        C  0.55006546  0.13668145  0.51386086     1.17200
H573        H  0.56685914  0.20203464  0.54961430     0.33100
H574        H  0.50918567  0.15956010  0.57723269     0.44000
H575        H  0.51657413  0.16984778  0.49764186     0.37500
H576        H  0.49047286  0.22925026  0.54513665     0.34000
H577        H  0.53821109  0.19061789  0.61127544     0.25800
H578        H  0.44992410  0.20136517  0.55605023     0.31700
H579        H  0.45392655  0.19640581  0.51554834     0.37600
H580        H  0.57632012  0.15536461  0.55608846     0.32100
H581        H  0.58859140  0.18191691  0.50585351     0.31000
H582        H  0.56276593  0.18787177  0.47887501     0.32700
H583        H  0.50830041  0.19759616  0.47402309     0.31600
H584        H  0.54131392  0.13657982  0.57521472     0.35600
H585        H  0.50498210  0.11667245  0.51953288     0.28300
H586        H  0.50917086  0.26003738  0.55190114     0.32600
H587        H  0.49456226  0.24343072  0.51036803     0.35400
H588        H  0.58872083  0.18314649  0.52835173     0.28000
H589        H  0.50976215  0.11453621  0.54146809     0.40900
H590        H  0.47709677  0.19084929  0.60636719     0.31000
H591        H  0.52560886  0.17235674  0.60864682     0.38600
H592        H  0.51699272  0.21687694  0.48159345     0.30400
H593        H  0.45645531  0.22061672  0.56578497     0.30500
H594        H  0.52147226  0.25946418  0.53300815     0.30800
Zr595      Zr  0.65232382  0.22605808  0.68213741     2.17500
O596        O  0.66659032  0.25678147  0.69035406    -0.51600
O597        O  0.63128516  0.23477372  0.65505038    -0.74800
O598        O  0.67116663  0.23560000  0.65367407    -0.81600
O599        O  0.61752247  0.22830581  0.72486616    -0.83300
O600        O  0.68558364  0.20807279  0.64221883    -0.78900
O601        O  0.62688788  0.24557352  0.69927184    -0.90600
O602        O  0.61388656  0.20789897  0.64938785    -0.76500
O603        O  0.64876974  0.19958761  0.66038155    -0.86000
O604        O  0.62565412  0.20768607  0.69300673    -0.85700
O605        O  0.68254791  0.20747730  0.68409087    -0.72500
O606        O  0.66161776  0.21495841  0.71381511    -0.84600
Zr607      Zr  0.65876120  0.15358884  0.70361513     2.26400
Zr608      Zr  0.67810976  0.18132782  0.66189084     2.06300
Zr609      Zr  0.63420095  0.19761122  0.72472657     2.10000
Zr610      Zr  0.62183430  0.18207555  0.67094487     1.78800
O611        O  0.65000499  0.20677328  0.75474851    -0.93400
O612        O  0.61781881  0.16733224  0.63919546    -0.41200
O613        O  0.62876173  0.17146338  0.70272672    -0.77900
O614        O  0.65099998  0.16307856  0.67157554    -0.96600
O615        O  0.68647194  0.16977570  0.69255519    -0.89900
O616        O  0.66325924  0.17899814  0.72647042    -0.92700
C617        C  0.61889192  0.22497355  0.64537059     1.01100
C618        C  0.61605563  0.24293109  0.71414475     1.14000
C619        C  0.68193956  0.22610625  0.64145019     1.04800
O620        O  0.66934676  0.16989527  0.62980393    -0.94900
O621        O  0.69033604  0.14870212  0.66098035    -0.90600
O622        O  0.67952316  0.13139314  0.68589780    -0.83700
C623        C  0.68942699  0.13322603  0.67054803     1.11400
O624        O  0.70341835  0.22492929  0.72772120    -0.96800
Zr625      Zr  0.69095228  0.19473922  0.71513926     1.88900
O626        O  0.68190933  0.14502254  0.72741063    -0.73500
O627        O  0.71237235  0.18228782  0.65343163    -0.52700
O628        O  0.72387709  0.20149231  0.70499174    -0.97400
O629        O  0.69655473  0.19193836  0.74954326    -0.54600
O630        O  0.70720807  0.16228749  0.71855038    -0.74000
C631        C  0.69996520  0.14662586  0.72486549     0.98400
O632        O  0.64320678  0.12296484  0.69812715    -0.62800
O633        O  0.60559893  0.20356814  0.74478325    -0.57600
O634        O  0.64401749  0.14561321  0.73331586    -0.94300
O635        O  0.62009990  0.16778784  0.73583853    -0.92700
O636        O  0.58821894  0.18992057  0.67924857    -0.93100
O637        O  0.60317011  0.15283306  0.67096988    -0.91900
C638        C  0.62690698  0.15073188  0.73827228     1.17200
H639        H  0.61331761  0.21429584  0.69248059     0.33100
H640        H  0.64966852  0.15190940  0.66327969     0.44000
H641        H  0.66520237  0.17456135  0.73937744     0.37500
H642        H  0.69316451  0.21518102  0.67988997     0.34000
H643        H  0.60490568  0.17194744  0.63479433     0.25800
H644        H  0.71913023  0.17480079  0.66342942     0.31700
H645        H  0.72595275  0.19341911  0.69330022     0.37600
H646        H  0.58161197  0.19166184  0.66675341     0.32100
H647        H  0.60747117  0.19580807  0.75639389     0.31000
H648        H  0.64360707  0.19913308  0.76463360     0.32700
H649        H  0.69002645  0.20330957  0.75554641     0.31600
H650        H  0.61272800  0.14263630  0.67423942     0.35600
H651        H  0.64876483  0.11448434  0.70802638     0.28300
H652        H  0.68076741  0.25415237  0.69013465     0.32600
H653        H  0.69235486  0.23415246  0.72691345     0.35400
H654        H  0.59476246  0.19753095  0.73772551     0.28000
H655        H  0.62951466  0.12515214  0.70200836     0.40900
H656        H  0.66365392  0.18124962  0.62344819     0.31000
H657        H  0.62714250  0.17392741  0.63094099     0.38600
H658        H  0.71060018  0.19418549  0.75126399     0.30400
H659        H  0.71359598  0.17422223  0.64161077     0.30500
H660        H  0.66352825  0.25895772  0.70412381     0.30800
Zr661      Zr  0.65878659  0.06705273  0.52520215     2.17500
O662        O  0.67076176  0.06053582  0.49284864    -0.51600
O663        O  0.63027043  0.08628072  0.51781626    -0.74800
O664        O  0.63098579  0.05148570  0.50973917    -0.81600
O665        O  0.68990453  0.10979072  0.53954916    -0.83300
O666        O  0.62137672  0.02896630  0.53053673    -0.78900
O667        O  0.67072242  0.09838472  0.51537892    -0.90600
O668        O  0.61283581  0.08536825  0.54541178    -0.76500
O669        O  0.63946518  0.05450308  0.54795858    -0.86000
O670        O  0.65710623  0.08884783  0.55198710    -0.85700
O671        O  0.67108236  0.03521780  0.53231499    -0.72500
O672        O  0.69105128  0.06670646  0.53883276    -0.84600
Zr673      Zr  0.67434362  0.04500157  0.59451608     2.26400
Zr674      Zr  0.64706417  0.02307498  0.55359288     2.06300
Zr675      Zr  0.68868191  0.08812922  0.56616923     2.10000
Zr676      Zr  0.63325582  0.07615230  0.57218932     1.78800
O677        O  0.72315355  0.09386344  0.56220365    -0.93400
O678        O  0.60168724  0.06775628  0.58509833    -0.41200
O679        O  0.66427076  0.07699257  0.58729098    -0.77900
O680        O  0.64258410  0.04427694  0.58081834    -0.96600
O681        O  0.67790752  0.02250463  0.56866769    -0.89900
O682        O  0.69932996  0.05709798  0.57507253    -0.92700
C683        C  0.61475187  0.08934331  0.52756786     1.01100
C684        C  0.68179922  0.11112494  0.52304405     1.14000
C685        C  0.61851889  0.03962245  0.51598767     1.04800
O686        O  0.62231384  0.99862347  0.55474587    -0.94900
O687        O  0.64151953  0.00635345  0.58369911    -0.90600
O688        O  0.66436280  0.01462507  0.60550644    -0.83700
C689        C  0.64947479  0.00526120  0.60044551     1.11400
O690        O  0.71546967  0.02836079  0.51700338    -0.96800
Zr691      Zr  0.70223458  0.03530889  0.54884231     1.88900
O692        O  0.70176429  0.02621395  0.60317018    -0.73500
O693        O  0.66184682  0.99688525  0.53466048    -0.52700
O694        O  0.70692001  0.00147055  0.54059183    -0.97400
O695        O  0.73379036  0.04961449  0.54406997    -0.54600
O696        O  0.72125122  0.02314010  0.57687684    -0.74000
C697        C  0.71751433  0.02095878  0.59492787     0.98400
O698        O  0.65738342  0.04972051  0.62501061    -0.62800
O699        O  0.68245006  0.12109805  0.57692383    -0.57600
O700        O  0.69401888  0.06414621  0.61525994    -0.94300
O701        O  0.70044833  0.09129816  0.59920131    -0.92700
O702        O  0.62934506  0.11081982  0.57548576    -0.93100
O703        O  0.62593900  0.08407375  0.60571315    -0.91900
C704        C  0.70091631  0.08095832  0.61428085     1.17200
H705        H  0.65325256  0.10156235  0.54825255     0.33100
H706        H  0.63314990  0.03977315  0.58974073     0.44000
H707        H  0.71148664  0.05802695  0.58189818     0.37500
H708        H  0.67198368  0.02774939  0.52054155     0.34000
H709        H  0.59183266  0.07378462  0.57668702     0.25800
H710        H  0.66056148  0.98546657  0.54270602     0.31700
H711        H  0.71140953  0.99543967  0.55258068     0.37600
H712        H  0.61521122  0.11301852  0.57728098     0.32100
H713        H  0.67596486  0.12012243  0.58953042     0.31000
H714        H  0.72491413  0.09560169  0.54825325     0.32700
H715        H  0.73706182  0.05567383  0.55660624     0.31600
H716        H  0.63668373  0.09223917  0.61021677     0.35600
H717        H  0.65734897  0.06371963  0.62756273     0.28300
H718        H  0.68483001  0.06305943  0.49367408     0.32600
H719        H  0.70916644  0.03799109  0.50869320     0.35400
H720        H  0.69542779  0.12619915  0.57995216     0.28000
H721        H  0.64364142  0.04684843  0.62222325     0.40900
H722        H  0.62195351  0.99262902  0.54174634     0.31000
H723        H  0.60049952  0.05376781  0.58305391     0.38600
H724        H  0.73120135  0.06050917  0.53550425     0.30400
H725        H  0.65279031  0.99474089  0.52380843     0.30500
H726        H  0.66535005  0.07118045  0.48520311     0.30800
Zr727      Zr  0.50177184  0.06605044  0.66251002     2.17500
O728        O  0.47128836  0.05349258  0.67380860    -0.51600
O729        O  0.48893092  0.08732923  0.63870846    -0.74800
O730        O  0.48799546  0.09707920  0.67622324    -0.81600
O731        O  0.51581784  0.02814078  0.62345812    -0.83300
O732        O  0.50385758  0.10387113  0.70399193    -0.78900
O733        O  0.49210864  0.04992698  0.63171700    -0.90600
O734        O  0.51445152  0.10594768  0.63093790    -0.76500
O735        O  0.52151648  0.09268390  0.66915840    -0.86000
O736        O  0.52635349  0.06617298  0.63851744    -0.85700
O737        O  0.51543527  0.05993140  0.69407185    -0.72500
O738        O  0.52040347  0.03643671  0.66663960    -0.84600
Zr739      Zr  0.57827285  0.06073958  0.67721082     2.26400
Zr740      Zr  0.53466781  0.08730750  0.70006364     2.06300
Zr741      Zr  0.54407891  0.03698657  0.64169640     2.10000
Zr742      Zr  0.54498387  0.09358667  0.64449428     1.78800
O743        O  0.53922608  0.00279522  0.63690073    -0.93400
O744        O  0.54575873  0.12806801  0.65046282    -0.41200
O745        O  0.56409665  0.06447684  0.64599487    -0.77900
O746        O  0.55910212  0.08987241  0.67567400    -0.96600
O747        O  0.55521767  0.05970883  0.70253968    -0.89900
O748        O  0.55934039  0.03291738  0.67206576    -0.92700
C749        C  0.49647502  0.10127812  0.62995312     1.01100
C750        C  0.49988712  0.03716727  0.62016101     1.14000
C751        C  0.49095829  0.10774666  0.69140812     1.04800
O752        O  0.53888806  0.12158840  0.70503554    -0.94900
O753        O  0.56221435  0.09278711  0.71957412    -0.90600
O754        O  0.58915093  0.08251954  0.70318298    -0.83700
C755        C  0.58048339  0.09194039  0.71696435     1.11400
O756        O  0.50906815  0.01638720  0.71092748    -0.96800
Zr757      Zr  0.53697334  0.03201761  0.69729279     1.88900
O758        O  0.59288556  0.03978726  0.69990209    -0.73500
O759        O  0.52469185  0.08115747  0.73293392    -0.52700
O760        O  0.53483457  0.03738753  0.73189656    -0.97400
O761        O  0.53533889  0.99787849  0.68970224    -0.54600
O762        O  0.56941685  0.01977563  0.70988093    -0.74000
C763        C  0.58732843  0.02542514  0.70931528     0.98400
O764        O  0.60805299  0.07467249  0.66540423    -0.62800
O765        O  0.55363339  0.04229163  0.60856764    -0.57600
O766        O  0.59610909  0.03590014  0.65810166    -0.94300
O767        O  0.57499103  0.02141888  0.63766448    -0.92700
O768        O  0.54883864  0.09172825  0.60973249    -0.93100
O769        O  0.57622759  0.10659271  0.63566310    -0.91900
C770        C  0.59182209  0.02322312  0.64499420     1.17200
H771        H  0.52140271  0.06732960  0.62565459     0.33100
H772        H  0.56707103  0.10082063  0.67852044     0.44000
H773        H  0.56688289  0.02114810  0.67251227     0.37500
H774        H  0.50511936  0.05954672  0.70342874     0.34000
H775        H  0.54686300  0.13362624  0.63755858     0.25800
H776        H  0.53011049  0.09178479  0.74075645     0.31700
H777        H  0.54822459  0.04031354  0.73605632     0.37600
H778        H  0.55953788  0.08227270  0.60749726     0.32100
H779        H  0.56774062  0.04471638  0.60904254     0.31000
H780        H  0.54727536  0.99660686  0.64687987     0.32700
H781        H  0.54856590  0.99407110  0.68536442     0.31600
H782        H  0.58454963  0.10495056  0.64713242     0.35600
H783        H  0.60891536  0.08736031  0.67192779     0.28300
H784        H  0.46137587  0.05899333  0.66509693     0.32600
H785        H  0.49777235  0.02181891  0.70394677     0.35400
H786        H  0.55260278  0.02960254  0.60208107     0.28000
H787        H  0.61867306  0.06689491  0.67110803     0.40900
H788        H  0.53904607  0.12681836  0.69194438     0.31000
H789        H  0.53244196  0.13165180  0.65466382     0.38600
H790        H  0.52726386  0.99708541  0.67795217     0.30400
H791        H  0.51047699  0.08347158  0.73333570     0.30500
H792        H  0.46899746  0.06025280  0.68626714     0.30800
Zr793      Zr  0.44172958  0.26919358  0.76419204     2.17500
O794        O  0.41526165  0.29118868  0.77361522    -0.51600
O795        O  0.44210416  0.26548932  0.79935320    -0.74800
O796        O  0.40925830  0.25545864  0.76083282    -0.81600
O797        O  0.47775864  0.31019375  0.76079109    -0.83300
O798        O  0.41056649  0.22627846  0.74567166    -0.78900
O799        O  0.44570170  0.30412834  0.76463942    -0.90600
O800        O  0.46305250  0.24205716  0.80860334    -0.76500
O801        O  0.44816675  0.23583702  0.76813812    -0.86000
O802        O  0.47442493  0.26710745  0.77556357    -0.85700
O803        O  0.43723011  0.25446969  0.73277557    -0.72500
O804        O  0.46163589  0.28268465  0.73974816    -0.84600
Zr805      Zr  0.49660999  0.23150568  0.72327309     2.26400
Zr806      Zr  0.44450392  0.22097340  0.73681494     2.06300
Zr807      Zr  0.49443703  0.27987235  0.75088135     2.10000
Zr808      Zr  0.48089153  0.23372086  0.77922610     1.78800
O809        O  0.50743373  0.30752198  0.73494685    -0.93400
O810        O  0.47149899  0.20362592  0.79330632    -0.41200
O811        O  0.50134789  0.24624678  0.75461748    -0.77900
O812        O  0.47726016  0.21802275  0.74828986    -0.96600
O813        O  0.46397652  0.23423574  0.71216413    -0.89900
O814        O  0.49036683  0.26501525  0.71979752    -0.92700
C815        C  0.45016474  0.25506717  0.81235997     1.01100
C816        C  0.46000824  0.31570745  0.76408526     1.14000
C817        C  0.40131322  0.24020688  0.75406231     1.04800
O818        O  0.43561772  0.19370576  0.75590941    -0.94900
O819        O  0.45839329  0.19223126  0.72066980    -0.90600
O820        O  0.48938230  0.19863415  0.71225367    -0.83700
C821        C  0.47481483  0.18734704  0.71291945     1.11400
O822        O  0.43018268  0.28970217  0.70568708    -0.96800
Zr823      Zr  0.45781652  0.26763756  0.70885021     1.88900
O824        O  0.50012842  0.23638204  0.68876712    -0.73500
O825        O  0.42401997  0.21246919  0.70950260    -0.52700
O826        O  0.43467332  0.25802990  0.68417715    -0.97400
O827        O  0.46862328  0.29834797  0.69731295    -0.54600
O828        O  0.47696427  0.25820546  0.68064355    -0.74000
C829        C  0.49137289  0.24687131  0.67640381     0.98400
O830        O  0.52257782  0.20730263  0.72348058    -0.62800
O831        O  0.51288766  0.28655829  0.78002139    -0.57600
O832        O  0.52882178  0.24571635  0.72314183    -0.94300
O833        O  0.52831340  0.27371473  0.74053071    -0.92700
O834        O  0.50434675  0.24766622  0.80137036    -0.93100
O835        O  0.50801729  0.21170604  0.78497978    -0.91900
C836        C  0.53714961  0.26053912  0.73039252     1.17200
H837        H  0.47612173  0.27426045  0.78745545     0.33100
H838        H  0.48076205  0.20467086  0.74965262     0.44000
H839        H  0.49917850  0.27044929  0.71070993     0.37500
H840        H  0.42408911  0.25634464  0.72827259     0.34000
H841        H  0.45835754  0.20610267  0.79864811     0.25800
H842        H  0.41491170  0.20297340  0.71445947     0.31700
H843        H  0.43671693  0.24401618  0.68259252     0.37600
H844        H  0.50260123  0.24079395  0.81351449     0.32100
H845        H  0.52177781  0.27533156  0.78122781     0.31000
H846        H  0.51511917  0.31423985  0.74494792     0.32700
H847        H  0.48030687  0.29529933  0.68948623     0.31600
H848        H  0.51350535  0.20885700  0.77208101     0.35600
H849        H  0.53041269  0.20970310  0.71189714     0.28300
H850        H  0.40831703  0.28492138  0.78412942     0.32600
H851        H  0.42685172  0.29366270  0.71904344     0.35400
H852        H  0.52149053  0.29713845  0.77660668     0.28000
H853        H  0.53104001  0.21079898  0.73445437     0.40900
H854        H  0.43157216  0.19933934  0.76848026     0.31000
H855        H  0.46937559  0.19480320  0.78222614     0.38600
H856        H  0.47366905  0.30508184  0.70887916     0.30400
H857        H  0.41586632  0.22403954  0.70721834     0.30500
H858        H  0.40603400  0.29127421  0.76269336     0.30800
Zr859      Zr  0.29910311  0.83629585  0.29954192     2.17500
O860        O  0.31084114  0.86901861  0.30122011    -0.51600
O861        O  0.27163654  0.85167435  0.28545593    -0.74800
O862        O  0.31625650  0.84428638  0.27041978    -0.81600
O863        O  0.26886514  0.83898601  0.33790136    -0.83300
O864        O  0.32516649  0.81797757  0.25259650    -0.78900
O865        O  0.29588047  0.85361943  0.33009581    -0.90600
O866        O  0.25119982  0.82919605  0.27351829    -0.76500
O867        O  0.29278564  0.81326415  0.27468940    -0.86000
O868        O  0.26951107  0.82075261  0.30780864    -0.85700
O869        O  0.32784130  0.81650284  0.29795633    -0.72500
O870        O  0.30561774  0.82206391  0.32997553    -0.84600
Zr871      Zr  0.30071654  0.76176482  0.31511781     2.26400
Zr872      Zr  0.32043906  0.79211616  0.27435783     2.06300
Zr873      Zr  0.27647838  0.80530032  0.33715289     2.10000
Zr874      Zr  0.26446536  0.79726692  0.28389437     1.78800
O875        O  0.27348207  0.81771111  0.36994497    -0.93400
O876        O  0.26426797  0.79464551  0.24894187    -0.41200
O877        O  0.27437596  0.78329893  0.31268833    -0.77900
O878        O  0.29188785  0.77512820  0.28391093    -0.96600
O879        O  0.32852641  0.77870154  0.30475723    -0.89900
O880        O  0.30587804  0.78672824  0.33806490    -0.92700
C881        C  0.25624586  0.84678584  0.27659922     1.01100
C882        C  0.28167937  0.85130829  0.34153465     1.14000
C883        C  0.32347132  0.83608209  0.25525409     1.04800
O884        O  0.32209561  0.78253849  0.24059399    -0.94900
O885        O  0.32140602  0.75818892  0.26863353    -0.90600
O886        O  0.32745887  0.74563847  0.29689595    -0.83700
C887        C  0.33242462  0.74842267  0.27940404     1.11400
O888        O  0.35191832  0.83183991  0.33420450    -0.96800
Zr889      Zr  0.33425736  0.80243664  0.32853785     1.88900
O890        O  0.32526462  0.74843804  0.33710138    -0.73500
O891        O  0.35579574  0.79090662  0.27276188    -0.52700
O892        O  0.36761942  0.79833898  0.31751747    -0.97400
O893        O  0.33800202  0.81064351  0.36249792    -0.54600
O894        O  0.34562400  0.77302186  0.34341728    -0.74000
C895        C  0.34041555  0.75557409  0.34517049     0.98400
O896        O  0.28388147  0.73246094  0.30658964    -0.62800
O897        O  0.24162724  0.79979824  0.33754731    -0.57600
O898        O  0.28711821  0.75320511  0.34699434    -0.94300
O899        O  0.27441760  0.78061261  0.36062225    -0.92700
O900        O  0.23121570  0.79753286  0.29584792    -0.93100
O901        O  0.24484448  0.77038244  0.27335179    -0.91900
C902        C  0.27952320  0.76291430  0.36128147     1.17200
H903        H  0.25797566  0.82874304  0.30875553     0.33100
H904        H  0.28861461  0.76492547  0.27499778     0.44000
H905        H  0.30870760  0.78185038  0.35134297     0.37500
H906        H  0.33874939  0.82397455  0.29409721     0.34000
H907        H  0.25036118  0.79537611  0.24534813     0.25800
H908        H  0.35872163  0.78994355  0.25886077     0.31700
H909        H  0.37537373  0.79722533  0.32943934     0.37600
H910        H  0.22737614  0.81124181  0.29711382     0.32100
H911        H  0.23972287  0.78986147  0.34724981     0.31000
H912        H  0.25937258  0.81784712  0.37264586     0.32700
H913        H  0.34640736  0.80045755  0.36793441     0.31600
H914        H  0.24991592  0.75941012  0.28074254     0.35600
H915        H  0.26996099  0.73575435  0.30849364     0.28300
H916        H  0.30548402  0.87537183  0.28973887     0.32600
H917        H  0.34396579  0.84190421  0.32795380     0.35400
H918        H  0.23591531  0.81163022  0.34347321     0.28000
H919        H  0.28540530  0.73111416  0.29248932     0.40900
H920        H  0.30854500  0.78373523  0.23595778     0.31000
H921        H  0.26953417  0.80689045  0.24456057     0.38600
H922        H  0.32505628  0.80867488  0.36818549     0.30400
H923        H  0.36006650  0.80385092  0.27667972     0.30500
H924        H  0.32500476  0.86791421  0.29890090     0.30800
Zr925      Zr  0.42406700  0.78057783  0.43180207     2.17500
O926        O  0.44272102  0.75323288  0.44347111    -0.51600
O927        O  0.40207527  0.76343729  0.41021249    -0.74800
O928        O  0.39992011  0.76328285  0.45082774    -0.81600
O929        O  0.45351723  0.79853095  0.38886500    -0.83300
O930        O  0.40063194  0.77910186  0.47901569    -0.78900
O931        O  0.44431936  0.77105303  0.40277165    -0.90600
O932        O  0.37774841  0.78454542  0.40261105    -0.76500
O933        O  0.39391558  0.79543865  0.44121272    -0.86000
O934        O  0.41504994  0.80226541  0.40739774    -0.85700
O935        O  0.42978460  0.79795749  0.46210176    -0.72500
O936        O  0.44932352  0.80411888  0.43227146    -0.84600
Zr937      Zr  0.41287630  0.85626444  0.44335787     2.26400
Zr938      Zr  0.39888659  0.81241116  0.47092957     2.06300
Zr939      Zr  0.44023559  0.82511661  0.40711536     2.10000
Zr940      Zr  0.38417253  0.81579365  0.41623664     1.78800
O941        O  0.47501101  0.82725699  0.40181212    -0.93400
O942        O  0.35214434  0.80766219  0.42812594    -0.41200
O943        O  0.40875313  0.83897491  0.41371862    -0.77900
O944        O  0.38783088  0.83317177  0.44603344    -0.96600
O945        O  0.42254611  0.83661429  0.46929171    -0.89900
O946        O  0.44438047  0.84317539  0.43610336    -0.92700
C947        C  0.38592879  0.76791913  0.40195353     1.01100
C948        C  0.45312282  0.78027753  0.38933843     1.14000
C949        C  0.39352622  0.76624044  0.46805267     1.04800
O950        O  0.36421148  0.80658259  0.47311782    -0.94900
O951        O  0.38786941  0.84041831  0.48947966    -0.90600
O952        O  0.39418816  0.86612883  0.47122382    -0.83700
C953        C  0.38728454  0.85846199  0.48621976     1.11400
O954        O  0.47756939  0.80144910  0.47511638    -0.96800
Zr955      Zr  0.45329576  0.82312011  0.46150530     1.88900
O956        O  0.43750413  0.87597127  0.45674811    -0.73500
O957        O  0.40355484  0.80931933  0.50545104    -0.52700
O958        O  0.45181764  0.82217706  0.49644229    -0.97400
O959        O  0.48624324  0.82584270  0.44933925    -0.54600
O960        O  0.46100094  0.85691958  0.46989737    -0.74000
C961        C  0.45339518  0.87343205  0.46585000     0.98400
O962        O  0.39309511  0.88556521  0.44159493    -0.62800
O963        O  0.43190877  0.83142379  0.37380778    -0.57600
O964        O  0.41591627  0.87112981  0.41221182    -0.94300
O965        O  0.44468240  0.85878641  0.40321342    -0.92700
O966        O  0.37883724  0.82051737  0.38209647    -0.93100
O967        O  0.36174836  0.84205726  0.40885531    -0.91900
C968        C  0.43012618  0.86972792  0.40035207     1.17200
H969        H  0.41424859  0.79588909  0.39497856     0.33100
H970        H  0.37565656  0.83935512  0.44957029     0.44000
H971        H  0.45428714  0.85256329  0.43446548     0.37500
H972        H  0.43401831  0.78897498  0.47166794     0.34000
H973        H  0.34696078  0.81942271  0.43462644     0.25800
H974        H  0.39223032  0.80212689  0.50990543     0.31700
H975        H  0.44666395  0.83495011  0.50055650     0.37600
H976        H  0.39192959  0.81961052  0.37629066     0.32100
H977        H  0.44443643  0.83415583  0.36759905     0.31000
H978        H  0.47658223  0.83880303  0.39404090     0.32700
H979        H  0.48689074  0.83899759  0.44439667     0.31600
H980        H  0.37010148  0.85330268  0.40739545     0.35600
H981        H  0.40216214  0.89570658  0.43799620     0.28300
H982        H  0.45630679  0.75583444  0.43990964     0.32600
H983        H  0.48588584  0.80962215  0.48335639     0.35400
H984        H  0.42808749  0.81890556  0.36821798     0.28000
H985        H  0.38459468  0.88376430  0.43024875     0.40900
H986        H  0.36261780  0.79981981  0.48533897     0.31000
H987        H  0.34403180  0.80609821  0.41646683     0.38600
H988        H  0.48671779  0.81744566  0.43771470     0.30400
H989        H  0.41478199  0.80038392  0.50687081     0.30500
H990        H  0.43895654  0.74244112  0.43489301     0.30800
Zr991      Zr  0.28623672  0.97178392  0.42904329     2.17500
O992        O  0.27017668  0.00221686  0.43726464    -0.51600
O993        O  0.30613252  0.98355249  0.40249113    -0.74800
O994        O  0.31417502  0.99102456  0.43910982    -0.81600
O995        O  0.24996157  0.94575329  0.39555101    -0.83300
O996        O  0.31564810  0.98382572  0.47001245    -0.78900
O997        O  0.26223638  0.97505030  0.40268988    -0.90600
O998        O  0.32935406  0.96022274  0.39932837    -0.76500
O999        O  0.31663275  0.95752398  0.43768139    -0.86000
O1000       O  0.29062043  0.94421705  0.40871149    -0.85700
O1001       O  0.28389958  0.96290677  0.46273607    -0.72500
O1002       O  0.26034032  0.95059340  0.43773737    -0.84600
Zr1003     Zr  0.29650927  0.90121418  0.45533448     2.26400
Zr1004     Zr  0.31521998  0.94937156  0.47083987     2.06300
Zr1005     Zr  0.26488754  0.92336348  0.41682523     2.10000
Zr1006     Zr  0.32198524  0.93149739  0.41630162     1.78800
O1007       O  0.22970442  0.92154869  0.41880223    -0.93400
O1008       O  0.35656571  0.93661703  0.42109492    -0.41200
O1009       O  0.29670323  0.91004110  0.42233607    -0.77900
O1010       O  0.32223763  0.92273179  0.44945484    -0.96600
O1011       O  0.29084511  0.92691255  0.47764625    -0.89900
O1012       O  0.26447337  0.91349708  0.44927626    -0.92700
C1013       C  0.32222188  0.97681897  0.39544274     1.01100
C1014       C  0.25127818  0.96369197  0.39274867     1.14000
C1015       C  0.32276616  0.99181511  0.45550243     1.04800
O1016       O  0.34978198  0.95606652  0.47178160    -0.94900
O1017       O  0.33065054  0.92564348  0.49124704    -0.90600
O1018       O  0.31959947  0.89684246  0.48083339    -0.83700
C1019       C  0.33012362  0.90726528  0.49179128     1.11400
O1020       O  0.23877323  0.96647698  0.48107698    -0.96800
Zr1021     Zr  0.25965756  0.93972914  0.47061560     1.88900
O1022       O  0.27361410  0.88675559  0.47511451    -0.73500
O1023       O  0.31007131  0.96010668  0.50395185    -0.52700
O1024       O  0.26453752  0.94967699  0.50397574    -0.97400
O1025       O  0.22512783  0.93526031  0.46480911    -0.54600
O1026       O  0.25231058  0.90928243  0.48701580    -0.74000
C1027       C  0.25920666  0.89194708  0.48545931     0.98400
O1028       O  0.31324459  0.87047304  0.45951514    -0.62800
O1029       O  0.26560438  0.90879040  0.38471781    -0.57600
O1030       O  0.29056024  0.87879579  0.42925252    -0.94300
O1031       O  0.26109035  0.88953418  0.42143637    -0.92700
O1032       O  0.32171631  0.92239869  0.38235378    -0.93100
O1033       O  0.33909759  0.90105387  0.41037613    -0.91900
C1034       C  0.27543972  0.87817110  0.41861645     1.17200
H1035       H  0.29001490  0.94746340  0.39530933     0.33100
H1036       H  0.33464789  0.91685910  0.45256328     0.44000
H1037       H  0.25424027  0.90446434  0.45097063     0.37500
H1038       H  0.28121950  0.97430589  0.47044548     0.34000
H1039       H  0.35721340  0.94956303  0.42710209     0.25800
H1040       H  0.32288379  0.96463264  0.50831552     0.31700
H1041       H  0.26853451  0.93783191  0.51060283     0.37600
H1042       H  0.31099466  0.91323121  0.38106199     0.32100
H1043       H  0.25219421  0.91025684  0.37975921     0.31000
H1044       H  0.22591670  0.91366235  0.40749411     0.32700
H1045       H  0.21947076  0.93356788  0.47771012     0.31600
H1046       H  0.34211026  0.89609729  0.42327708     0.35600
H1047       H  0.30308458  0.86066198  0.45861642     0.28300
H1048       H  0.25732695  0.99863647  0.44224419     0.32600
H1049       H  0.24215105  0.97702169  0.47249908     0.35400
H1050       H  0.27336119  0.91751759  0.37693364     0.28000
H1051       H  0.32136870  0.86835602  0.44791784     0.40900
H1052       H  0.35618362  0.94461425  0.46579582     0.31000
H1053       H  0.36055003  0.92786149  0.43143371     0.38600
H1054       H  0.22427340  0.92245077  0.45854563     0.30400
H1055       H  0.30182379  0.97184036  0.50318115     0.30500
H1056       H  0.26733358  0.00813560  0.42475455     0.30800
Zr1057     Zr  0.40009682  0.89929206  0.27984945     2.17500
O1058       O  0.38937000  0.86627319  0.28093746    -0.51600
O1059       O  0.42519248  0.88321282  0.26186984    -0.74800
O1060       O  0.37668322  0.88879814  0.25592871    -0.81600
O1061       O  0.43475452  0.89992528  0.31616445    -0.83300
O1062       O  0.36180652  0.91343392  0.24049583    -0.78900
O1063       O  0.40706784  0.88501973  0.31104643    -0.90600
O1064       O  0.44324380  0.90540292  0.24697684    -0.76500
O1065       O  0.40276593  0.92073290  0.25385795    -0.86000
O1066       O  0.42982193  0.91617528  0.28424832    -0.85700
O1067       O  0.37110650  0.91882111  0.28078827    -0.72500
O1068       O  0.39690460  0.91538277  0.31040458    -0.84600
Zr1069     Zr  0.39805748  0.97502488  0.29370807     2.26400
Zr1070     Zr  0.37499833  0.94165554  0.25590158     2.06300
Zr1071     Zr  0.42618297  0.93324110  0.31412808     2.10000
Zr1072     Zr  0.43164624  0.93787276  0.25897587     1.78800
O1073       O  0.42875179  0.92612018  0.34812416    -0.93400
O1074       O  0.42849346  0.94043964  0.22428678    -0.41200
O1075       O  0.42761206  0.95579505  0.28912837    -0.77900
O1076       O  0.40380846  0.95952774  0.26224662    -0.96600
O1077       O  0.37011872  0.95644158  0.28682687    -0.89900
O1078       O  0.39676884  0.95136633  0.31763553    -0.92700
C1079       C  0.43866559  0.88787016  0.25047467     1.01100
C1080       C  0.42210443  0.88817099  0.32139516     1.14000
C1081       C  0.36461234  0.89560286  0.24358344     1.04800
O1082       O  0.37877560  0.94429900  0.22128693    -0.94900
O1083       O  0.36959467  0.97534698  0.25052919    -0.90600
O1084       O  0.36813967  0.98911593  0.27963867    -0.83700
C1085       C  0.36074140  0.98600079  0.26289965     1.11400
O1086       O  0.35282258  0.90369179  0.31815135    -0.96800
Zr1087     Zr  0.36784661  0.93411538  0.31152119     1.88900
O1088       O  0.37864110  0.98683197  0.32133762    -0.73500
O1089       O  0.33996874  0.94651029  0.25430522    -0.52700
O1090       O  0.33336221  0.93652270  0.30405572    -0.97400
O1091       O  0.36683610  0.92714476  0.34558253    -0.54600
O1092       O  0.35686560  0.96352831  0.32697141    -0.74000
C1093       C  0.36423460  0.97988999  0.33049642     0.98400
O1094       O  0.40944652  0.00487717  0.28077408    -0.62800
O1095       O  0.46134212  0.93571765  0.31242927    -0.57600
O1096       O  0.41915342  0.98741660  0.32008761    -0.94300
O1097       O  0.43408609  0.96140448  0.33296370    -0.92700
O1098       O  0.46608449  0.93871721  0.26698698    -0.93100
O1099       O  0.44858977  0.96488011  0.24577832    -0.91900
C1100       C  0.43042668  0.97943091  0.33267225     1.17200
H1101       H  0.44128942  0.90798675  0.28417739     0.33100
H1102       H  0.40520778  0.96931979  0.25277808     0.44000
H1103       H  0.39639185  0.95683079  0.33041572     0.37500
H1104       H  0.35962280  0.91135944  0.27869908     0.34000
H1105       H  0.44079698  0.93490012  0.21909225     0.25800
H1106       H  0.33605339  0.94162304  0.24145857     0.31700
H1107       H  0.32678535  0.93526351  0.31658435     0.37600
H1108       H  0.46977171  0.92535310  0.27003582     0.32100
H1109       H  0.46374827  0.94952129  0.31083023     0.31000
H1110       H  0.41651452  0.93119676  0.35386239     0.32700
H1111       H  0.35986941  0.93804566  0.35196532     0.31600
H1112       H  0.44905892  0.97442010  0.25649218     0.35600
H1113       H  0.40396455  0.01496241  0.28950879     0.28300
H1114       H  0.38070278  0.86579994  0.29224049     0.32600
H1115       H  0.36145671  0.89388394  0.31195336     0.35400
H1116       H  0.46591917  0.93297943  0.32558452     0.28000
H1117       H  0.42355872  0.00475153  0.28349429     0.40900
H1118       H  0.38312475  0.95752736  0.21930396     0.31000
H1119       H  0.41857868  0.93099778  0.22054537     0.38600
H1120       H  0.38046512  0.92811130  0.34991602     0.30400
H1121       H  0.33474132  0.93733929  0.26349018     0.30500
H1122       H  0.40101340  0.85856127  0.28443209     0.30800
Zr1123     Zr  0.18960758  0.70786449  0.64549738     2.17500
O1124       O  0.19564189  0.71867346  0.61302724    -0.51600
O1125       O  0.20011526  0.73975550  0.65374104    -0.74800
O1126       O  0.16037023  0.72272491  0.63263604    -0.81600
O1127       O  0.22373561  0.66429913  0.63962610    -0.83300
O1128       O  0.14172135  0.73275560  0.65790696    -0.78900
O1129       O  0.20838010  0.68771513  0.62285085    -0.90600
O1130       O  0.22866359  0.73832301  0.66731170    -0.76500
O1131       O  0.18627556  0.72783409  0.67335842    -0.86000
O1132       O  0.21758063  0.70147246  0.66513102    -0.85700
O1133       O  0.15963021  0.69722262  0.65874734    -0.72500
O1134       O  0.18949978  0.67425377  0.65236352    -0.84600
Zr1135     Zr  0.18074119  0.67812551  0.71503737     2.26400
Zr1136     Zr  0.15632198  0.71798410  0.68645957     2.06300
Zr1137     Zr  0.21627822  0.66861170  0.67356639     2.10000
Zr1138     Zr  0.21362194  0.72095733  0.69349831     1.78800
O1139       O  0.22504549  0.63587904  0.66406094    -0.93400
O1140       O  0.20621192  0.75376879  0.70407098    -0.41200
O1141       O  0.21164021  0.68779100  0.70210013    -0.77900
O1142       O  0.18338553  0.71169841  0.70776564    -0.96600
O1143       O  0.15447349  0.68462994  0.69375782    -0.89900
O1144       O  0.18647435  0.65863620  0.68706710    -0.92700
C1145       C  0.21797697  0.74340352  0.65326114     1.01100
C1146       C  0.21883811  0.67225512  0.62383550     1.14000
C1147       C  0.14499921  0.73091227  0.63972739     1.04800
O1148       O  0.15332928  0.75211210  0.69400433    -0.94900
O1149       O  0.14809622  0.72133724  0.71988473    -0.90600
O1150       O  0.15131286  0.69133551  0.73098082    -0.83700
C1151       C  0.14274796  0.70792700  0.73063908     1.11400
O1152       O  0.14662383  0.66080744  0.63408202    -0.96800
Zr1153     Zr  0.15994933  0.66432023  0.66636553     1.88900
O1154       O  0.16076286  0.64968634  0.71909908    -0.73500
O1155       O  0.12133118  0.71428502  0.68834875    -0.52700
O1156       O  0.12457646  0.66471209  0.66610566    -0.97400
O1157       O  0.16954112  0.63360859  0.65165078    -0.54600
O1158       O  0.15004061  0.64122105  0.68929001    -0.74000
C1159       C  0.15161060  0.63858584  0.70733808     0.98400
O1160       O  0.18962204  0.68277959  0.74863191    -0.62800
O1161       O  0.25063413  0.67515173  0.67772897    -0.57600
O1162       O  0.20279322  0.65234181  0.72496793    -0.94300
O1163       O  0.22323381  0.64701926  0.69973227    -0.92700
O1164       O  0.24813201  0.71464629  0.69858491    -0.93100
O1165       O  0.22591989  0.72941164  0.72531221    -0.91900
C1166       C  0.21686642  0.64316435  0.71654672     1.17200
H1167       H  0.22948606  0.70378552  0.65834849     0.33100
H1168       H  0.18232028  0.71911997  0.71959058     0.44000
H1169       H  0.18732661  0.64519612  0.69001424     0.37500
H1170       H  0.14847135  0.69783868  0.65045694     0.34000
H1171       H  0.21780820  0.76105245  0.70053594     0.25800
H1172       H  0.11936635  0.70215549  0.69509244     0.31700
H1173       H  0.12076052  0.67776897  0.66208615     0.37600
H1174       H  0.25439355  0.72702901  0.69630269     0.32100
H1175       H  0.25691769  0.66232585  0.67860974     0.31000
H1176       H  0.21371420  0.63118723  0.65672301     0.32700
H1177       H  0.17837093  0.62759380  0.66108134     0.31600
H1178       H  0.21736350  0.72273728  0.73428244     0.35600
H1179       H  0.18581848  0.69623019  0.75177070     0.28300
H1180       H  0.19186899  0.73242482  0.61328779     0.32600
H1181       H  0.15434516  0.66949012  0.62619838     0.35400
H1182       H  0.25490712  0.67990451  0.66516566     0.28000
H1183       H  0.18028301  0.67502025  0.75575174     0.40900
H1184       H  0.13990633  0.75570638  0.69021898     0.31000
H1185       H  0.19593409  0.75833284  0.69523653     0.38600
H1186       H  0.17812433  0.63684198  0.64085429     0.30400
H1187       H  0.11667849  0.72445625  0.69744029     0.30500
H1188       H  0.18565901  0.71252044  0.60486318     0.30800
Zr1189     Zr  0.20870151  0.56686879  0.55658400     2.17500
O1190       O  0.24180790  0.55477244  0.55233614    -0.51600
O1191       O  0.21474491  0.59747195  0.57212257    -0.74800
O1192       O  0.22427714  0.59166701  0.53694601    -0.81600
O1193       O  0.19808471  0.53314721  0.59862383    -0.83300
O1194       O  0.20194491  0.60034075  0.51451967    -0.78900
O1195       O  0.21980842  0.55509645  0.58880710    -0.90600
O1196       O  0.18598636  0.61389161  0.57166441    -0.76500
O1197       O  0.18514394  0.58940161  0.54521389    -0.86000
O1198       O  0.18279794  0.56770336  0.57934319    -0.85700
O1199       O  0.19877716  0.55575107  0.52474983    -0.72500
O1200       O  0.19573320  0.53493139  0.55565091    -0.84600
Zr1201     Zr  0.13736005  0.54993806  0.53776550     2.26400
Zr1202     Zr  0.17498542  0.57886014  0.51407824     2.06300
Zr1203     Zr  0.16979439  0.53615678  0.57864650     2.10000
Zr1204     Zr  0.16014016  0.59113673  0.56842353     1.78800
O1205       O  0.17659567  0.50333417  0.58794198    -0.93400
O1206       O  0.14381142  0.62038184  0.55785775    -0.41200
O1207       O  0.14648838  0.55995088  0.56934888    -0.77900
O1208       O  0.14919422  0.58170934  0.53714793    -0.96600
O1209       O  0.16171823  0.54791320  0.51374989    -0.89900
O1210       O  0.15960198  0.52580694  0.54770201    -0.92700
C1211       C  0.20444354  0.61290034  0.57401085     1.01100
C1212       C  0.21366367  0.54256452  0.60083718     1.14000
C1213       C  0.21814167  0.60253890  0.52324678     1.04800
O1214       O  0.16964684  0.60798770  0.49629948    -0.94900
O1215       O  0.14324784  0.58400291  0.49877438    -0.90600
O1216       O  0.12729165  0.55730703  0.50570252    -0.83700
C1217       C  0.12823213  0.57342647  0.49755075     1.11400
O1218       O  0.21730643  0.51240968  0.51915452    -0.96800
Zr1219     Zr  0.18426655  0.52445450  0.52431073     1.88900
O1220       O  0.12853988  0.52216893  0.52070465    -0.73500
O1221       O  0.18832677  0.56636230  0.48389062    -0.52700
O1222       O  0.19226944  0.52255883  0.49029849    -0.97400
O1223       O  0.18893242  0.49147921  0.53439572    -0.54600
O1224       O  0.15618219  0.50741768  0.50952876    -0.74000
C1225       C  0.13747935  0.50923035  0.51092344     0.98400
O1226       O  0.10486644  0.56399790  0.54123095    -0.62800
O1227       O  0.15699799  0.54562697  0.61011679    -0.57600
O1228       O  0.12013786  0.52880018  0.55794831    -0.94300
O1229       O  0.13987489  0.51843271  0.58179234    -0.92700
O1230       O  0.16271270  0.59815766  0.60276583    -0.93100
O1231       O  0.12794641  0.59694004  0.58203031    -0.91900
C1232       C  0.12371108  0.51849517  0.57257849     1.17200
H1233       H  0.18721979  0.57135144  0.59204854     0.33100
H1234       H  0.13914078  0.59061187  0.53321149     0.44000
H1235       H  0.15375937  0.51339347  0.54824591     0.37500
H1236       H  0.20984441  0.55560051  0.51625764     0.34000
H1237       H  0.14458135  0.62940658  0.56897703     0.25800
H1238       H  0.17760839  0.56798418  0.47454132     0.31700
H1239       H  0.19111712  0.50881684  0.48676929     0.37600
H1240       H  0.16475136  0.61213577  0.60379889     0.32100
H1241       H  0.15714263  0.53363598  0.61744513     0.31000
H1242       H  0.18151433  0.49688673  0.57607504     0.32700
H1243       H  0.18960094  0.48386334  0.52224753     0.31600
H1244       H  0.11888994  0.59204408  0.57211591     0.35600
H1245       H  0.10209654  0.56375219  0.55516450     0.28300
H1246       H  0.24391091  0.55475616  0.53827847     0.32600
H1247       H  0.22535131  0.52038210  0.52784047     0.35400
H1248       H  0.16726466  0.55342725  0.61618135     0.28000
H1249       H  0.10634001  0.57773944  0.53849146     0.40900
H1250       H  0.16655692  0.61792413  0.50624937     0.31000
H1251       H  0.15258339  0.62563848  0.54812966     0.38600
H1252       H  0.17643199  0.48794719  0.54018728     0.30400
H1253       H  0.19798042  0.57591786  0.48018028     0.30500
H1254       H  0.24118698  0.54105062  0.55551756     0.30800
Zr1255     Zr  0.05405633  0.71042902  0.55102435     2.17500
O1256       O  0.04540768  0.74225928  0.53993334    -0.51600
O1257       O  0.07790196  0.72067624  0.57427922    -0.74800
O1258       O  0.03796915  0.72266134  0.58123336    -0.81600
O1259       O  0.09575925  0.69297397  0.51875533    -0.83300
O1260       O  0.00740736  0.71216994  0.58016186    -0.78900
O1261       O  0.08513793  0.71939420  0.53570403    -0.90600
O1262       O  0.08469728  0.69423791  0.59189756    -0.76500
O1263       O  0.04396836  0.69094954  0.57639941    -0.86000
O1264       O  0.07687824  0.68443148  0.55300940    -0.85700
O1265       O  0.02203667  0.69948063  0.54176009    -0.72500
O1266       O  0.05182883  0.69307442  0.52054927    -0.84600
Zr1267     Zr  0.03424894  0.63689205  0.54226884     2.26400
Zr1268     Zr  0.01245214  0.67997182  0.56800437     2.06300
Zr1269     Zr  0.07451489  0.66693683  0.52354907     2.10000
Zr1270     Zr  0.06755051  0.66626864  0.57947924     1.78800
O1271       O  0.08239697  0.67194355  0.48997685    -0.93400
O1272       O  0.05751895  0.67051970  0.61287295    -0.41200
O1273       O  0.06623575  0.64764307  0.55015452    -0.77900
O1274       O  0.03598224  0.65437688  0.57226495    -0.96600
O1275       O  0.01066761  0.66201222  0.53869389    -0.89900
O1276       O  0.04360592  0.65544782  0.51545898    -0.92700
C1277       C  0.08661021  0.71199990  0.58792902     1.01100
C1278       C  0.09787885  0.71005366  0.52532040     1.14000
C1279       C  0.02077226  0.72141935  0.58861732     1.04800
O1280       O  0.00578421  0.68114604  0.60222513    -0.94900
O1281       O  0.99408016  0.65277878  0.57791711    -0.90600
O1282       O  0.00918794  0.62669667  0.56416292    -0.83700
C1283       C  0.99625859  0.63467443  0.57524992     1.11400
O1284       O  0.00932712  0.71042233  0.49793088    -0.96800
Zr1285     Zr  0.02032270  0.68052323  0.51206663     1.88900
O1286       O  0.00587617  0.63841395  0.52256856    -0.73500
O1287       O  0.97930176  0.68832090  0.55883570    -0.52700
O1288       O  0.98501573  0.68336507  0.51114628    -0.97400
O1289       O  0.03165776  0.68493123  0.47936644    -0.54600
O1290       O  0.01199678  0.65017750  0.49463587    -0.74000
C1291       C  0.00771615  0.63571509  0.50465769     0.98400
O1292       O  0.03759141  0.60274497  0.54823797    -0.62800
O1293       O  0.10584868  0.65200783  0.53082454    -0.57600
O1294       O  0.05268102  0.61622947  0.51931946    -0.94300
O1295       O  0.07646546  0.63550743  0.50893888    -0.92700
O1296       O  0.10133572  0.65518103  0.57966602    -0.93100
O1297       O  0.07169727  0.63712379  0.59774905    -0.91900
C1298       C  0.06769777  0.61947854  0.50893435     1.17200
H1299       H  0.09002162  0.68849798  0.55507983     0.33100
H1300       H  0.03240343  0.64652628  0.58290588     0.44000
H1301       H  0.04454611  0.64835392  0.50348816     0.37500
H1302       H  0.01330854  0.71043266  0.54087255     0.34000
H1303       H  0.06976443  0.67205363  0.62015741     0.25800
H1304       H  0.97251891  0.69085560  0.57118068     0.31700
H1305       H  0.98026846  0.67226295  0.51823897     0.37600
H1306       H  0.10144405  0.64289875  0.57228721     0.32100
H1307       H  0.11334042  0.65262199  0.51874287     0.31000
H1308       H  0.07218871  0.66520687  0.48262939     0.32700
H1309       H  0.03586570  0.67200503  0.47474164     0.31600
H1310       H  0.06653373  0.62687414  0.58925487     0.35600
H1311       H  0.03881608  0.60174887  0.56234914     0.28300
H1312       H  0.03236097  0.74496204  0.54541022     0.32600
H1313       H  0.01929457  0.71977938  0.50178165     0.35400
H1314       H  0.11224722  0.66113495  0.53973270     0.28000
H1315       H  0.02480376  0.59727879  0.54506900     0.40900
H1316       H  0.01667461  0.67375217  0.60792414     0.31000
H1317       H  0.05117447  0.68336332  0.61359345     0.38600
H1318       H  0.04386477  0.69205822  0.48083191     0.30400
H1319       H  0.98014001  0.70104639  0.55294165     0.30500
H1320       H  0.04311033  0.74042651  0.52598634     0.30800
Zr1321     Zr  0.05274270  0.55791373  0.70578906     2.17500
O1322       O  0.04314288  0.54591356  0.73684012    -0.51600
O1323       O  0.07943291  0.57914451  0.71570612    -0.74800
O1324       O  0.08112676  0.53966258  0.71801145    -0.81600
O1325       O  0.00659576  0.57933106  0.70791519    -0.83300
O1326       O  0.09303877  0.52344635  0.69182573    -0.78900
O1327       O  0.03476364  0.58456420  0.72216231    -0.90600
O1328       O  0.08914743  0.59255995  0.68796058    -0.76500
O1329       O  0.07603494  0.55894690  0.68067416    -0.86000
O1330       O  0.04369162  0.58428029  0.68577111    -0.85700
O1331       O  0.05002493  0.52752612  0.68799403    -0.72500
O1332       O  0.02098852  0.55001621  0.69225203    -0.84600
Zr1333     Zr  0.03458034  0.55132957  0.63158495     2.26400
Zr1334     Zr  0.07385949  0.52947643  0.66319080     2.06300
Zr1335     Zr  0.01187682  0.57744329  0.67375063     2.10000
Zr1336     Zr  0.06754763  0.58561430  0.66157743     1.78800
O1337       O  0.97725290  0.58069445  0.68037189    -0.93400
O1338       O  0.09866947  0.58446658  0.64499979    -0.41200
O1339       O  0.03555955  0.58084934  0.64920572    -0.77900
O1340       O  0.06689078  0.55637469  0.64322701    -0.96600
O1341       O  0.04297124  0.52394602  0.64944735    -0.89900
O1342       O  0.00993837  0.54840775  0.65513408    -0.92700
C1343       C  0.09096935  0.58951030  0.70596727     1.01100
C1344       C  0.01727555  0.59001354  0.71829513     1.14000
C1345       C  0.09371073  0.52833165  0.70969225     1.04800
O1346       O  0.10488016  0.53666600  0.64857483    -0.94900
O1347       O  0.06828814  0.51009935  0.63453973    -0.90600
O1348       O  0.05538521  0.53031438  0.61286731    -0.83700
C1349       C  0.06476542  0.51501433  0.61724163     1.11400
O1350       O  0.00836146  0.50530330  0.70154454    -0.96800
Zr1351     Zr  0.01905527  0.52083111  0.67258191     1.88900
O1352       O  0.01522429  0.52680100  0.61764707    -0.73500
O1353       O  0.08620510  0.49651485  0.66457775    -0.52700
O1354       O  0.03096902  0.48792263  0.67504294    -0.97400
O1355       O  0.98391036  0.51951617  0.67599024    -0.54600
O1356       O  0.01148685  0.50452749  0.64054040    -0.74000
C1357       C  0.01051081  0.51009753  0.62283090     0.98400
O1358       O  0.04229380  0.56737351  0.60186569    -0.62800
O1359       O  0.01258130  0.61230033  0.67572275    -0.57600
O1360       O  0.00745121  0.56993694  0.61988461    -0.94300
O1361       O  0.99295904  0.58515548  0.64535682    -0.92700
O1362       O  0.06592343  0.61942148  0.67101474    -0.93100
O1363       O  0.06571988  0.60638675  0.63392669    -0.91900
C1364       C  0.99458544  0.58132404  0.62728454     1.17200
H1365       H  0.04390013  0.59611195  0.69208286     0.33100
H1366       H  0.07582894  0.55670926  0.63262592     0.44000
H1367       H  0.99732047  0.54692436  0.64937345     0.37500
H1368       H  0.05340246  0.51709669  0.69632249     0.34000
H1369       H  0.10336670  0.59776139  0.64591398     0.25800
H1370       H  0.10045028  0.49736992  0.66617247     0.31700
H1371       H  0.04171222  0.48679065  0.66563191     0.37600
H1372       H  0.05207456  0.62323315  0.66976990     0.32100
H1373       H  0.99876061  0.61642738  0.67631202     0.31000
H1374       H  0.97418458  0.56948043  0.68818283     0.32700
H1375       H  0.97910008  0.51576357  0.66307687     0.31600
H1376       H  0.05205458  0.61103055  0.63342125     0.35600
H1377       H  0.04052688  0.58121042  0.60493584     0.28300
H1378       H  0.02879966  0.54713799  0.73691437     0.32600
H1379       H  0.01420774  0.51288010  0.71216922     0.35400
H1380       H  0.01691246  0.61612997  0.66284184     0.28000
H1381       H  0.05650462  0.56562404  0.60029971     0.40900
H1382       H  0.11331120  0.54026090  0.65954370     0.31000
H1383       H  0.10741764  0.57718836  0.65359394     0.38600
H1384       H  0.97953493  0.53301520  0.67784292     0.30400
H1385       H  0.08141448  0.49150320  0.67684941     0.30500
H1386       H  0.04749646  0.55575404  0.74625791     0.30800
Zr1387     Zr  0.22594791  0.72486530  0.52983812     2.17500
O1388       O  0.21189331  0.70237613  0.55210035    -0.51600
O1389       O  0.19081784  0.72446965  0.52556286    -0.74800
O1390       O  0.22703454  0.73540310  0.56369646    -0.81600
O1391       O  0.24303579  0.68630618  0.49332684    -0.83300
O1392       O  0.23477907  0.76690018  0.56547227    -0.78900
O1393       O  0.23312473  0.69086505  0.52428191    -0.90600
O1394       O  0.18109931  0.74529855  0.50283889    -0.76500
O1395       O  0.21644091  0.75722096  0.52402453    -0.86000
O1396       O  0.21923507  0.72604682  0.49607508    -0.85700
O1397       O  0.25368600  0.74341008  0.53927417    -0.72500
O1398       O  0.25502569  0.71512106  0.51317498    -0.84600
Zr1399     Zr  0.26754578  0.76888545  0.48428141     2.26400
Zr1400     Zr  0.24402567  0.77598516  0.53317189     2.06300
Zr1401     Zr  0.24876406  0.71751228  0.47944264     2.10000
Zr1402     Zr  0.21048315  0.75847842  0.49022405     1.78800
O1403       O  0.27454689  0.69531058  0.46908422    -0.93400
O1404       O  0.19140387  0.78697875  0.49948510    -0.41200
O1405       O  0.24017288  0.75026343  0.47376834    -0.77900
O1406       O  0.23709340  0.77779447  0.49948196    -0.96600
O1407       O  0.27415842  0.76671826  0.51770069    -0.89900
O1408       O  0.27602598  0.73608555  0.48905397    -0.92700
C1409       C  0.17769232  0.73269601  0.51539800     1.01100
C1410       C  0.23821207  0.68008689  0.50988550     1.14000
C1411       C  0.23037141  0.75099694  0.57318495     1.04800
O1412       O  0.21742075  0.79707422  0.54389574    -0.94900
O1413       O  0.25008784  0.80824962  0.52160431    -0.90600
O1414       O  0.26264649  0.80373243  0.49161946    -0.83700
C1415       C  0.25604578  0.81464184  0.50548874     1.11400
O1416       O  0.28671140  0.71220700  0.54940172    -0.96800
Zr1417     Zr  0.28227151  0.73359892  0.52248456     1.88900
O1418       O  0.30333686  0.76435645  0.48621728    -0.73500
O1419       O  0.26758113  0.78998118  0.55517170    -0.52700
O1420       O  0.30184058  0.74741110  0.54818432    -0.97400
O1421       O  0.29784592  0.70318716  0.51301595    -0.54600
O1422       O  0.31238148  0.74293634  0.50873449    -0.74000
C1423       C  0.31625644  0.75429111  0.49524608     0.98400
O1424       O  0.28067202  0.78978694  0.46013857    -0.62800
O1425       O  0.22508959  0.70325368  0.45773101    -0.57600
O1426       O  0.26701169  0.75820055  0.45074424    -0.94300
O1427       O  0.25888984  0.72698191  0.44698278    -0.92700
O1428       O  0.19454249  0.74473722  0.46202001    -0.93100
O1429       O  0.20484767  0.78020217  0.46380031    -0.91900
C1430       C  0.26472350  0.74297706  0.44030046     1.17200
H1431       H  0.20905295  0.71738700  0.49239580     0.33100
H1432       H  0.23214724  0.79023242  0.49602591     0.44000
H1433       H  0.28707722  0.73202003  0.48136743     0.37500
H1434       H  0.25797231  0.74177003  0.55232431     0.34000
H1435       H  0.17771217  0.78341581  0.49740572     0.25800
H1436       H  0.27784379  0.79498858  0.54682553     0.31700
H1437       H  0.29359967  0.75786555  0.55379242     0.37600
H1438       H  0.18868397  0.73277856  0.46641990     0.32100
H1439       H  0.21972174  0.71415381  0.45042902     0.31000
H1440       H  0.26790827  0.68546226  0.46119057     0.32700
H1441       H  0.30232363  0.70497037  0.49968858     0.31600
H1442       H  0.21681469  0.78776827  0.46313118     0.35600
H1443       H  0.26950808  0.79749477  0.45547154     0.28300
H1444       H  0.20147566  0.70954275  0.55912971     0.32600
H1445       H  0.27344370  0.70822405  0.55274088     0.35400
H1446       H  0.23297212  0.69577102  0.44823287     0.28000
H1447       H  0.28910395  0.79895090  0.46705987     0.40900
H1448       H  0.22278010  0.80446412  0.55490356     0.31000
H1449       H  0.19278349  0.78806894  0.51360785     0.38600
H1450       H  0.28715419  0.69398183  0.51173970     0.30400
H1451       H  0.26093923  0.80155647  0.56063830     0.30500
H1452       H  0.22197486  0.69977419  0.56188031     0.30800
Zr1453     Zr  0.21571275  0.52624500  0.72889235     2.17500
O1454       O  0.18974368  0.55009639  0.72466592    -0.51600
O1455       O  0.21828457  0.53014616  0.69365398    -0.74800
O1456       O  0.22711406  0.55878024  0.73114227    -0.81600
O1457       O  0.17672729  0.48748434  0.73834099    -0.83300
O1458       O  0.25930040  0.55995603  0.73828356    -0.78900
O1459       O  0.18126933  0.51830971  0.72979019    -0.90600
O1460       O  0.23925845  0.50720583  0.68255443    -0.76500
O1461       O  0.24802430  0.52002942  0.71828799    -0.86000
O1462       O  0.21634163  0.49333555  0.71943936    -0.85700
O1463       O  0.23584226  0.53305674  0.75670851    -0.72500
O1464       O  0.20752651  0.50886016  0.75725421    -0.84600
Zr1465     Zr  0.26252029  0.47625005  0.76475000     2.26400
Zr1466     Zr  0.26850415  0.52658647  0.74559366     2.06300
Zr1467     Zr  0.20911820  0.47569704  0.74774857     2.10000
Zr1468     Zr  0.24868157  0.48699314  0.70926198     1.78800
O1469       O  0.18627073  0.46871055  0.77319822    -0.93400
O1470       O  0.27896632  0.49180466  0.69216227    -0.41200
O1471       O  0.24185822  0.46905411  0.73749093    -0.77900
O1472       O  0.26975047  0.49334491  0.73585692    -0.96600
O1473       O  0.26110812  0.50920477  0.77406631    -0.89900
O1474       O  0.22981725  0.48187731  0.77514934    -0.92700
C1475       C  0.22811949  0.52191789  0.67993669     1.01100
C1476       C  0.17033806  0.50395035  0.73292256     1.14000
C1477       C  0.24281240  0.56793997  0.73422961     1.04800
O1478       O  0.28953998  0.53552690  0.71938649    -0.94900
O1479       O  0.30129310  0.51322023  0.75154262    -0.90600
O1480       O  0.29722828  0.48221647  0.75979631    -0.83700
C1481       C  0.30802514  0.49640446  0.75554966     1.11400
O1482       O  0.20317691  0.53870412  0.79233571    -0.96800
Zr1483     Zr  0.22843797  0.51496947  0.78438591     1.88900
O1484       O  0.26469926  0.47975750  0.80052594    -0.73500
O1485       O  0.28384353  0.54759047  0.76922303    -0.52700
O1486       O  0.24074968  0.54366278  0.80029525    -0.97400
O1487       O  0.20418349  0.50283543  0.80624694    -0.54600
O1488       O  0.24636057  0.50442090  0.81248673    -0.74000
C1489       C  0.25856825  0.49061194  0.81474123     0.98400
O1490       O  0.28707797  0.45177095  0.77211470    -0.62800
O1491       O  0.19513195  0.45371943  0.72411813    -0.57600
O1492       O  0.25114758  0.44307054  0.76159440    -0.94300
O1493       O  0.21871302  0.44286414  0.75542368    -0.92700
O1494       O  0.22925067  0.46521255  0.68975931    -0.93100
O1495       O  0.26580318  0.45770025  0.69894463    -0.91900
C1496       C  0.23501524  0.43437652  0.75899149     1.17200
H1497       H  0.20709751  0.49087383  0.70927710     0.33100
H1498       H  0.28225216  0.48981950  0.73053542     0.44000
H1499       H  0.22671693  0.47371862  0.78568589     0.37500
H1500       H  0.23432573  0.54605246  0.76146693     0.34000
H1501       H  0.27578142  0.48948308  0.67845143     0.25800
H1502       H  0.27292401  0.55467013  0.77552910     0.31700
H1503       H  0.25442452  0.54045801  0.80349240     0.37600
H1504       H  0.23243370  0.46823358  0.67631648     0.32100
H1505       H  0.20624705  0.44591463  0.71911882     0.31000
H1506       H  0.19260446  0.45839978  0.78062708     0.32700
H1507       H  0.21000435  0.49105147  0.81165454     0.31600
H1508       H  0.27326533  0.45369053  0.71038517     0.35600
H1509       H  0.28169115  0.44426058  0.78268738     0.28300
H1510       H  0.19413013  0.55838256  0.71423062     0.32600
H1511       H  0.19276711  0.53639231  0.78279880     0.35400
H1512       H  0.18745071  0.44474826  0.73170360     0.28000
H1513       H  0.28757659  0.44286908  0.76085193     0.40900
H1514       H  0.29952338  0.54359645  0.72556649     0.31000
H1515       H  0.28105141  0.50576734  0.69322458     0.38600
H1516       H  0.19359476  0.49826333  0.79781270     0.30400
H1517       H  0.28892120  0.53893707  0.77920896     0.30500
H1518       H  0.18986431  0.55835471  0.73640401     0.30800
Zr1519     Zr  0.55928151  0.52135630  0.18940242     2.17500
O1520       O  0.54805684  0.49120510  0.20185134    -0.51600
O1521       O  0.58838387  0.51002501  0.17170500    -0.74800
O1522       O  0.54351231  0.50414899  0.16235304    -0.81600
O1523       O  0.59232719  0.53444740  0.23140246    -0.83300
O1524       O  0.52071302  0.52458029  0.15012280    -0.78900
O1525       O  0.58410261  0.50924653  0.21197003    -0.90600
O1526       O  0.59566560  0.53491152  0.15269564    -0.76500
O1527       O  0.55490659  0.54107181  0.16212575    -0.86000
O1528       O  0.58327679  0.54534246  0.19186757    -0.85700
O1529       O  0.52682996  0.53548832  0.19189778    -0.72500
O1530       O  0.55265412  0.53939811  0.21884192    -0.84600
Zr1531     Zr  0.54222766  0.59579131  0.19439522     2.26400
Zr1532     Zr  0.52308665  0.55571209  0.16461777     2.06300
Zr1533     Zr  0.57696957  0.56342974  0.22067425     2.10000
Zr1534     Zr  0.57971994  0.56401348  0.16414687     1.78800
O1535       O  0.57744088  0.56190002  0.25562353    -0.93400
O1536       O  0.57551402  0.56497689  0.12945288    -0.41200
O1537       O  0.57447988  0.58274162  0.19294005    -0.77900
O1538       O  0.54824422  0.57862475  0.16500674    -0.96600
O1539       O  0.51659096  0.57361804  0.19328787    -0.89900
O1540       O  0.54556236  0.57740002  0.22253497    -0.92700
C1541       C  0.59882874  0.51802055  0.15897009     1.01100
C1542       C  0.59402523  0.51690946  0.22578155     1.14000
C1543       C  0.52967193  0.50840886  0.15053013     1.04800
O1544       O  0.51606647  0.55425330  0.13033823    -0.94900
O1545       O  0.51234579  0.58610641  0.15080694    -0.90600
O1546       O  0.51874515  0.60951921  0.17277280    -0.83700
C1547       C  0.51221789  0.60379797  0.15648045     1.11400
O1548       O  0.50822155  0.52505364  0.23372285    -0.96800
Zr1549     Zr  0.52089834  0.55443044  0.22086147     1.88900
O1550       O  0.51925776  0.60870202  0.21690832    -0.73500
O1551       O  0.48871680  0.55148398  0.17087823    -0.52700
O1552       O  0.48610398  0.55160782  0.21563090    -0.97400
O1553       O  0.52634566  0.55059473  0.25513229    -0.54600
O1554       O  0.50813081  0.58480329  0.23542576    -0.74000
C1555       C  0.50955701  0.60257509  0.23103514     0.98400
O1556       O  0.55397159  0.62452557  0.17937830    -0.62800
O1557       O  0.61153725  0.56982360  0.21850606    -0.57600
O1558       O  0.55951949  0.61588519  0.21643795    -0.94300
O1559       O  0.58087485  0.59646656  0.23190555    -0.92700
O1560       O  0.61408233  0.56880910  0.17052300    -0.93100
O1561       O  0.59199405  0.59296011  0.14997052    -0.91900
C1562       C  0.57338400  0.61305248  0.22828146     1.17200
H1563       H  0.59623856  0.53984603  0.19238753     0.33100
H1564       H  0.54746847  0.58702575  0.15419949     0.44000
H1565       H  0.54460365  0.58509810  0.23418785     0.37500
H1566       H  0.51743426  0.52541283  0.19109430     0.34000
H1567       H  0.58816276  0.56052495  0.12408714     0.25800
H1568       H  0.48225452  0.55453589  0.15858214     0.31700
H1569       H  0.48025009  0.55379237  0.22848925     0.37600
H1570       H  0.61448027  0.58000849  0.17946732     0.32100
H1571       H  0.61591955  0.57109826  0.23200843     0.31000
H1572       H  0.57410441  0.57499944  0.26041090     0.32700
H1573       H  0.51512465  0.55719583  0.26142875     0.31600
H1574       H  0.58163644  0.60277347  0.15219930     0.35600
H1575       H  0.56814773  0.62442383  0.18174227     0.28300
H1576       H  0.55239760  0.48133950  0.19228488     0.32600
H1577       H  0.51688413  0.51477207  0.22841172     0.35400
H1578       H  0.61768445  0.55769408  0.21376280     0.28000
H1579       H  0.55285164  0.62203194  0.16537957     0.40900
H1580       H  0.52822297  0.55822877  0.12413980     0.31000
H1581       H  0.56654761  0.55444661  0.12636040     0.38600
H1582       H  0.53750649  0.55881377  0.25821804     0.30400
H1583       H  0.48729690  0.53748113  0.17205491     0.30500
H1584       H  0.53376043  0.49187758  0.20042541     0.30800
Zr1585     Zr  0.67939797  0.52305962  0.06553340     2.17500
O1586       O  0.68564180  0.49048656  0.05361530    -0.51600
O1587       O  0.66115148  0.51677087  0.09470823    -0.74800
O1588       O  0.69935083  0.50792988  0.09025916    -0.81600
O1589       O  0.63740578  0.53218025  0.03094801    -0.83300
O1590       O  0.72391653  0.52808663  0.09777923    -0.78900
O1591       O  0.64783948  0.51140422  0.05379096    -0.90600
O1592       O  0.65668281  0.54557257  0.10993735    -0.76500
O1593       O  0.68888080  0.54647527  0.08885883    -0.86000
O1594       O  0.65565135  0.54824616  0.06391509    -0.85700
O1595       O  0.71163878  0.53300782  0.05656968    -0.72500
O1596       O  0.68140481  0.53496578  0.03320376    -0.84600
Zr1597     Zr  0.69661587  0.59261885  0.04884081     2.26400
Zr1598     Zr  0.72051864  0.55697128  0.08005940     2.06300
Zr1599     Zr  0.65729838  0.56025194  0.03199192     2.10000
Zr1600     Zr  0.66431681  0.57071672  0.08805465     1.78800
O1601       O  0.65399891  0.55165412  0.99808283    -0.93400
O1602       O  0.67404056  0.58455008  0.11885391    -0.41200
O1603       O  0.66460969  0.58332961  0.05643218    -0.77900
O1604       O  0.69589559  0.58165936  0.08084130    -0.96600
O1605       O  0.72192873  0.56924663  0.04882559    -0.89900
O1606       O  0.68868529  0.57051225  0.02387920    -0.92700
C1607       C  0.65572033  0.52728070  0.10920857     1.01100
C1608       C  0.63548281  0.51728212  0.04115476     1.14000
C1609       C  0.71443386  0.51277588  0.10005834     1.04800
O1610       O  0.73436295  0.56019867  0.11208815    -0.94900
O1611       O  0.73309339  0.58898319  0.08700255    -0.90600
O1612       O  0.72738584  0.60423882  0.05945514    -0.83700
C1613       C  0.73385935  0.60392266  0.07658221     1.11400
O1614       O  0.71848460  0.51341180  0.01358688    -0.96800
Zr1615     Zr  0.71328557  0.54640590  0.02496684     1.88900
O1616       O  0.71521156  0.60102593  0.02233971    -0.73500
O1617       O  0.75345946  0.54930714  0.06946095    -0.52700
O1618       O  0.74745375  0.53722009  0.02770492    -0.97400
O1619       O  0.70714455  0.54307729  0.99055513    -0.54600
O1620       O  0.73037404  0.57388044  0.01085500    -0.74000
C1621       C  0.72771791  0.59226687  0.01184466     0.98400
O1622       O  0.68870263  0.62377563  0.06325331    -0.62800
O1623       O  0.62344738  0.57075480  0.03496200    -0.57600
O1624       O  0.67780608  0.61102523  0.02736680    -0.94300
O1625       O  0.65328248  0.59200009  0.01748060    -0.92700
O1626       O  0.62898391  0.57096128  0.09021355    -0.93100
O1627       O  0.65204837  0.60323009  0.09422379    -0.91900
C1628       C  0.66236574  0.60804598  0.01786828     1.17200
H1629       H  0.64277031  0.54405892  0.06694281     0.33100
H1630       H  0.69869557  0.59183816  0.08995951     0.44000
H1631       H  0.68851200  0.57639441  0.01145719     0.37500
H1632       H  0.72058275  0.52220195  0.05722706     0.34000
H1633       H  0.66227257  0.58416128  0.12693504     0.25800
H1634       H  0.76002855  0.56178833  0.06961800     0.31700
H1635       H  0.75316625  0.54036240  0.01515310     0.37600
H1636       H  0.62614251  0.57332425  0.10400273     0.32100
H1637       H  0.61697924  0.56553273  0.02333245     0.31000
H1638       H  0.64171483  0.55800663  0.99407551     0.32700
H1639       H  0.70270477  0.55592074  0.98645968     0.31600
H1640       H  0.64469085  0.60663544  0.08251966     0.35600
H1641       H  0.67434291  0.62462319  0.06289454     0.28300
H1642       H  0.69997523  0.48913045  0.05338311     0.32600
H1643       H  0.72855085  0.51391186  0.00348973     0.35400
H1644       H  0.61819377  0.56331354  0.04565223     0.28000
H1645       H  0.69172714  0.62248051  0.07705376     0.40900
H1646       H  0.72301084  0.56068651  0.12080001     0.31000
H1647       H  0.68309809  0.57493002  0.12434366     0.38600
H1648       H  0.69544141  0.53511914  0.98952850     0.30400
H1649       H  0.75938914  0.54232353  0.08028346     0.30500
H1650       H  0.68184700  0.49073895  0.03990492     0.30800
Zr1651     Zr  0.52771581  0.68690922  0.06165314     2.17500
O1652       O  0.49569761  0.69607297  0.04985728    -0.51600
O1653       O  0.51720944  0.66409724  0.08529113    -0.74800
O1654       O  0.51700793  0.65547732  0.04717104    -0.81600
O1655       O  0.53168566  0.73369128  0.09273365    -0.83300
O1656       O  0.54185252  0.64277295  0.02913747    -0.78900
O1657       O  0.51418037  0.70666058  0.08943915    -0.90600
O1658       O  0.54502616  0.65524646  0.10070133    -0.76500
O1659       O  0.55257454  0.66281018  0.06048271    -0.86000
O1660       O  0.55006430  0.69429087  0.08683726    -0.85700
O1661       O  0.54291897  0.68988892  0.03029098    -0.72500
O1662       O  0.54125482  0.71763532  0.05341459    -0.84600
Zr1663     Zr  0.60307848  0.70076015  0.05039673     2.26400
Zr1664     Zr  0.56752494  0.66530399  0.02981582     2.06300
Zr1665     Zr  0.56282740  0.72483179  0.07939496     2.10000
Zr1666     Zr  0.57374659  0.66943975  0.08648122     1.78800
O1667       O  0.55475508  0.75859211  0.07519670    -0.93400
O1668       O  0.58170604  0.63529266  0.08623180    -0.41200
O1669       O  0.58742035  0.70016205  0.08100067    -0.77900
O1670       O  0.58972347  0.67010240  0.05599980    -0.96600
O1671       O  0.58254650  0.69480633  0.02369759    -0.89900
O1672       O  0.57959788  0.72616300  0.04966640    -0.92700
C1673       C  0.52650640  0.65475490  0.09815393     1.01100
C1674       C  0.51813745  0.72285468  0.09809811     1.14000
C1675       C  0.52501764  0.64186418  0.03667636     1.04800
O1676       O  0.58286710  0.63358824  0.02835949    -0.94900
O1677       O  0.59601943  0.66255374  0.01038042    -0.90600
O1678       O  0.61882369  0.67925192  0.02676234    -0.83700
C1679       C  0.61353569  0.66720223  0.01352714     1.11400
O1680       O  0.53025921  0.73123201  0.00652898    -0.96800
Zr1681     Zr  0.55911970  0.71962200  0.02332502     1.88900
O1682       O  0.61565522  0.72149186  0.02711870    -0.73500
O1683       O  0.55467879  0.66316243  0.99721719    -0.52700
O1684       O  0.55650726  0.70640097  0.99081349    -0.97400
O1685       O  0.55306491  0.75414218  0.02426049    -0.54600
O1686       O  0.59022419  0.73152154  0.00872155    -0.74000
C1687       C  0.60866528  0.73048170  0.01289360     0.98400
O1688       O  0.63443704  0.69102150  0.06365993    -0.62800
O1689       O  0.56842594  0.72780964  0.11391826    -0.57600
O1690       O  0.61661262  0.72719932  0.06882351    -0.94300
O1691       O  0.59176803  0.74298588  0.08405060    -0.92700
O1692       O  0.57608326  0.67875831  0.12031044    -0.93100
O1693       O  0.60584715  0.66151092  0.09905169    -0.91900
C1694       C  0.60967061  0.74098096  0.07944692     1.17200
H1695       H  0.54448019  0.69442809  0.09953719     0.33100
H1696       H  0.60005902  0.66052297  0.05563133     0.44000
H1697       H  0.58550128  0.73843026  0.04806312     0.37500
H1698       H  0.53340446  0.68725340  0.02040615     0.34000
H1699       H  0.57238248  0.62954938  0.09512546     0.25800
H1700       H  0.56493263  0.66839268  0.98901390     0.31700
H1701       H  0.56967487  0.70741248  0.98530752     0.37600
H1702       H  0.57429217  0.66673875  0.12731786     0.32100
H1703       H  0.56632378  0.74160426  0.11699568     0.31000
H1704       H  0.55976518  0.76515830  0.08687685     0.32700
H1705       H  0.56558281  0.75980194  0.02808106     0.31600
H1706       H  0.61456129  0.67080264  0.09312914     0.35600
H1707       H  0.63480571  0.67686484  0.06250472     0.28300
H1708       H  0.49461611  0.68930826  0.03727325     0.32600
H1709       H  0.53508965  0.73754140  0.99491657     0.35400
H1710       H  0.55733306  0.72147574  0.11996554     0.28000
H1711       H  0.64408750  0.69521729  0.05419206     0.40900
H1712       H  0.59086649  0.63254433  0.04010538     0.31000
H1713       H  0.57778124  0.63063018  0.07332380     0.38600
H1714       H  0.54449101  0.75645011  0.03550315     0.30400
H1715       H  0.55485095  0.64929153  0.99395501     0.30500
H1716       H  0.49687921  0.70973254  0.04662671     0.30800
Zr1717     Zr  0.67099674  0.68547085  0.21293483     2.17500
O1718       O  0.68678536  0.69295738  0.24340347    -0.51600
O1719       O  0.64360575  0.66852070  0.22476502    -0.74800
O1720       O  0.64489616  0.70607605  0.22816882    -0.81600
O1721       O  0.69197222  0.63600024  0.19654742    -0.83300
O1722       O  0.63695443  0.72957749  0.20733946    -0.78900
O1723       O  0.68156001  0.65254927  0.22326449    -0.90600
O1724       O  0.62233500  0.66866939  0.19973180    -0.76500
O1725       O  0.64674714  0.69913011  0.19289707    -0.86000
O1726       O  0.66370372  0.66262341  0.18831173    -0.85700
O1727       O  0.68459045  0.71463505  0.20032086    -0.72500
O1728       O  0.70075600  0.68136345  0.19470899    -0.84600
Zr1729     Zr  0.67876533  0.69779038  0.13839087     2.26400
Zr1730     Zr  0.65930947  0.72779357  0.18055417     2.06300
Zr1731     Zr  0.69289186  0.65772299  0.17063882     2.10000
Zr1732     Zr  0.63830084  0.67575644  0.16970167     1.78800
O1733       O  0.72488904  0.64499938  0.17905609    -0.93400
O1734       O  0.60607002  0.69048541  0.16670996    -0.41200
O1735       O  0.66680229  0.66885931  0.15100968    -0.77900
O1736       O  0.64978626  0.70471438  0.15636480    -0.96600
O1737       O  0.68713318  0.72260843  0.16082305    -0.89900
O1738       O  0.70492871  0.68598213  0.15727068    -0.92700
C1739       C  0.62701822  0.66529624  0.21724716     1.01100
C1740       C  0.68748150  0.63695910  0.21430325     1.14000
C1741       C  0.63403915  0.72040765  0.22277592     1.04800
O1742       O  0.63358819  0.75194932  0.17948566    -0.94900
O1743       O  0.65339479  0.74565170  0.15141622    -0.90600
O1744       O  0.66661493  0.72806410  0.12677902    -0.83700
C1745       C  0.65741076  0.74287847  0.13359161     1.11400
O1746       O  0.73349423  0.71710204  0.20709118    -0.96800
Zr1747     Zr  0.71275657  0.70998924  0.17964385     1.88900
O1748       O  0.70577205  0.71138191  0.12406508    -0.73500
O1749       O  0.67730284  0.75398293  0.19524639    -0.52700
O1750       O  0.71699001  0.74426935  0.18464368    -0.97400
O1751       O  0.74480679  0.69456904  0.18057173    -0.54600
O1752       O  0.72757213  0.71796314  0.14780135    -0.74000
C1753       C  0.72211607  0.71717164  0.12994423     0.98400
O1754       O  0.66079804  0.69064666  0.10903650    -0.62800
O1755       O  0.68114151  0.62776059  0.15690273    -0.57600
O1756       O  0.69857549  0.67528998  0.11901336    -0.94300
O1757       O  0.70820639  0.65242708  0.13987215    -0.92700
O1758       O  0.62969274  0.64209014  0.16865729    -0.93100
O1759       O  0.62525435  0.66757307  0.13815237    -0.91900
C1760       C  0.70868242  0.66033811  0.12341642     1.17200
H1761       H  0.65905535  0.65081515  0.19337796     0.33100
H1762       H  0.63985627  0.71007762  0.14816226     0.44000
H1763       H  0.71679977  0.68362488  0.15022639     0.37500
H1764       H  0.68764693  0.72324120  0.21089281     0.34000
H1765       H  0.60456392  0.69870210  0.17839680     0.25800
H1766       H  0.67711854  0.76408740  0.18549224     0.31700
H1767       H  0.72124725  0.74895224  0.17204708     0.37600
H1768       H  0.63994336  0.63569262  0.16074288     0.32100
H1769       H  0.67627475  0.63092400  0.14395034     0.31000
H1770       H  0.72656861  0.63326559  0.17094812     0.32700
H1771       H  0.74956786  0.69444834  0.16716900     0.31600
H1772       H  0.62523287  0.67972116  0.13109574     0.35600
H1773       H  0.65709257  0.67709568  0.11016765     0.28300
H1774       H  0.67675068  0.69062742  0.25319630     0.32600
H1775       H  0.72800099  0.70964422  0.21764491     0.35400
H1776       H  0.69297097  0.61977712  0.15452584     0.28000
H1777       H  0.64841812  0.69800321  0.11034752     0.40900
H1778       H  0.63997061  0.76424729  0.18242154     0.31000
H1779       H  0.60707364  0.69963033  0.15611613     0.38600
H1780       H  0.74224049  0.68097616  0.18316215     0.30400
H1781       H  0.66873880  0.75907885  0.20564181     0.30500
H1782       H  0.68810828  0.70704710  0.24354351     0.30800
Zr1783     Zr  0.79595005  0.47287158  0.42782202     2.17500
O1784       O  0.78573795  0.50506091  0.43794580    -0.51600
O1785       O  0.81841499  0.48130149  0.40269803    -0.74800
O1786       O  0.82834482  0.48294827  0.43978754    -0.81600
O1787       O  0.75206085  0.46795623  0.40204056    -0.83300
O1788       O  0.83738977  0.46398668  0.46460238    -0.78900
O1789       O  0.77937236  0.48390400  0.39853069    -0.90600
O1790       O  0.83134560  0.45252200  0.39275814    -0.76500
O1791       O  0.82012184  0.44936556  0.43443643    -0.86000
O1792       O  0.79209732  0.44779263  0.40409593    -0.85700
O1793       O  0.78950580  0.46205402  0.46017702    -0.72500
O1794       O  0.76398579  0.45968163  0.43289518    -0.84600
Zr1795     Zr  0.78201192  0.40158394  0.44448554     2.26400
Zr1796     Zr  0.81453705  0.43846567  0.46624490     2.06300
Zr1797     Zr  0.76052840  0.43502961  0.40860591     2.10000
Zr1798     Zr  0.81792261  0.42578244  0.40986873     1.78800
O1799       O  0.72585030  0.43793768  0.40186831    -0.93400
O1800       O  0.85217228  0.42255907  0.41826654    -0.41200
O1801       O  0.78641675  0.41215444  0.41255603    -0.77900
O1802       O  0.81373757  0.41394822  0.44161066    -0.96600
O1803       O  0.78373284  0.42442919  0.47000622    -0.89900
O1804       O  0.75564626  0.42328551  0.43977616    -0.92700
C1805       C  0.82953418  0.47084475  0.39187741     1.01100
C1806       C  0.76290003  0.47842298  0.39199682     1.14000
C1807       C  0.84048503  0.47741992  0.45287864     1.04800
O1808       O  0.84754444  0.42958006  0.47547291    -0.94900
O1809       O  0.81846637  0.40951526  0.48519499    -0.90600
O1810       O  0.79905671  0.38792978  0.47059661    -0.83700
C1811       C  0.81120494  0.39275518  0.48356635     1.11400
O1812       O  0.74492098  0.47753731  0.47581343    -0.96800
Zr1813     Zr  0.75832653  0.44686029  0.46435555     1.88900
O1814       O  0.75688726  0.39183857  0.46523408    -0.73500
O1815       O  0.80868909  0.45366711  0.49754139    -0.52700
O1816       O  0.76361838  0.45356326  0.49839232    -0.97400
O1817       O  0.72417099  0.45293283  0.45706641    -0.54600
O1818       O  0.74228123  0.41847638  0.47847519    -0.74000
C1819       C  0.74417986  0.40006704  0.47601963     0.98400
O1820       O  0.79557406  0.37047692  0.43438348    -0.62800
O1821       O  0.76499664  0.43085070  0.37404166    -0.57600
O1822       O  0.75891758  0.38329475  0.42728789    -0.94300
O1823       O  0.74527139  0.40367286  0.40602642    -0.92700
O1824       O  0.81812697  0.41785369  0.37561705    -0.93100
O1825       O  0.82786367  0.39317128  0.40068793    -0.91900
C1826       C  0.74709871  0.38712632  0.41379810     1.17200
H1827       H  0.79326416  0.45222303  0.39112611     0.33100
H1828       H  0.82344694  0.40412893  0.44411854     0.44000
H1829       H  0.74316724  0.41727465  0.44051972     0.37500
H1830       H  0.79060588  0.47272130  0.46914400     0.34000
H1831       H  0.85922075  0.42596113  0.40648320     0.25800
H1832       H  0.80825696  0.44289248  0.50652611     0.31700
H1833       H  0.76744373  0.44105045  0.50380335     0.37600
H1834       H  0.80928654  0.42742649  0.36974089     0.32100
H1835       H  0.77212255  0.41845701  0.37254275     0.31000
H1836       H  0.72391365  0.43139065  0.38928385     0.32700
H1837       H  0.71738262  0.44135010  0.46114453     0.31600
H1838       H  0.83385340  0.38776802  0.41236255     0.35600
H1839       H  0.79561921  0.37073802  0.42017318     0.28300
H1840       H  0.79232424  0.51351555  0.42889211     0.32600
H1841       H  0.74757781  0.48648066  0.46534123     0.35400
H1842       H  0.75190951  0.42830366  0.36883020     0.28000
H1843       H  0.80947777  0.37077276  0.43795948     0.40900
H1844       H  0.85288085  0.42248567  0.46413946     0.31000
H1845       H  0.85463055  0.43326605  0.42743059     0.38600
H1846       H  0.72345692  0.45240387  0.44286693     0.30400
H1847       H  0.82095657  0.46016622  0.50072744     0.30500
H1848       H  0.79243614  0.50726178  0.45035841     0.30800
Zr1849     Zr  0.79728041  0.30595132  0.27960473     2.17500
O1850       O  0.78190604  0.29859635  0.24892859    -0.51600
O1851       O  0.82517556  0.32339055  0.26844756    -0.74800
O1852       O  0.78860391  0.33815093  0.26767582    -0.81600
O1853       O  0.82423488  0.25818845  0.28410939    -0.83300
O1854       O  0.77882084  0.35607726  0.29372161    -0.78900
O1855       O  0.81987830  0.28282262  0.26362838    -0.90600
O1856       O  0.84195387  0.33036771  0.29575797    -0.76500
O1857       O  0.80201468  0.32996093  0.30365575    -0.86000
O1858       O  0.82102068  0.29394476  0.30151161    -0.85700
O1859       O  0.76594336  0.31084598  0.29497414    -0.72500
O1860       O  0.78336623  0.27742495  0.29293330    -0.84600
Zr1861     Zr  0.78354884  0.29606628  0.35326332     2.26400
Zr1862     Zr  0.77148373  0.33511824  0.31901900     2.06300
Zr1863     Zr  0.80786242  0.26549554  0.31437955     2.10000
Zr1864     Zr  0.82635005  0.31848775  0.32456506     1.78800
O1865       O  0.79485023  0.23492186  0.30364561    -0.93400
O1866       O  0.83116557  0.35214026  0.33277575    -0.41200
O1867       O  0.81416661  0.28988946  0.33817719    -0.77900
O1868       O  0.79618628  0.32490916  0.34097643    -0.96600
O1869       O  0.75891092  0.30743165  0.33272311    -0.89900
O1870       O  0.77776838  0.27104740  0.33048698    -0.92700
C1871       C  0.83953447  0.33085020  0.27741594     1.01100
C1872       C  0.82800665  0.26680989  0.26844296     1.14000
C1873       C  0.78390751  0.35422148  0.27618645     1.04800
O1874       O  0.77817711  0.36588179  0.33451742    -0.94900
O1875       O  0.75023205  0.34012750  0.34617391    -0.90600
O1876       O  0.76022347  0.31840599  0.36798573    -0.83700
C1877       C  0.74941453  0.33261840  0.36272223     1.11400
O1878       O  0.73770276  0.27486892  0.27956841    -0.96800
Zr1879     Zr  0.75299799  0.28288597  0.31020021     1.88900
O1880       O  0.75653445  0.27970793  0.36545151    -0.73500
O1881       O  0.74101557  0.34669579  0.30523827    -0.52700
O1882       O  0.72163727  0.29857087  0.30469503    -0.97400
O1883       O  0.74691043  0.24855467  0.31069685    -0.54600
O1884       O  0.73459457  0.27916275  0.34102204    -0.74000
C1885       C  0.73947416  0.27725259  0.35890964     0.98400
O1886       O  0.79852879  0.30496989  0.38380241    -0.62800
O1887       O  0.84040372  0.25321247  0.32114603    -0.57600
O1888       O  0.79544231  0.26678608  0.36679124    -0.94300
O1889       O  0.80977941  0.24736199  0.34415653    -0.92700
O1890       O  0.85885909  0.30397694  0.32534406    -0.93100
O1891       O  0.84357414  0.32135588  0.35501814    -0.91900
C1892       C  0.80430544  0.25120123  0.36150409     1.17200
H1893       H  0.83348826  0.29146113  0.29559145     0.33100
H1894       H  0.79782299  0.33432889  0.35117773     0.44000
H1895       H  0.77348175  0.25958580  0.33657502     0.37500
H1896       H  0.75670847  0.31557103  0.28566099     0.34000
H1897       H  0.84500490  0.35431478  0.32988331     0.25800
H1898       H  0.73075267  0.34078391  0.31293573     0.31700
H1899       H  0.71196118  0.28926125  0.30892181     0.37600
H1900       H  0.86427966  0.30544328  0.31231857     0.32100
H1901       H  0.84191872  0.24145387  0.31304290     0.31000
H1902       H  0.78607261  0.23119109  0.31410409     0.32700
H1903       H  0.74117681  0.24502848  0.29811483     0.31600
H1904       H  0.83429125  0.32810537  0.36377457     0.35600
H1905       H  0.81266325  0.30376030  0.38137167     0.28300
H1906       H  0.78078789  0.28448180  0.24866131     0.32600
H1907       H  0.74381124  0.28339301  0.27025289     0.35400
H1908       H  0.84923495  0.26249944  0.31538572     0.28000
H1909       H  0.79602925  0.31892957  0.38532968     0.40900
H1910       H  0.76671819  0.37409848  0.33158517     0.31000
H1911       H  0.82393883  0.35922472  0.32279094     0.38600
H1912       H  0.73616955  0.24719592  0.31996119     0.30400
H1913       H  0.74026531  0.36047008  0.30888328     0.30500
H1914       H  0.79199133  0.30116871  0.23925581     0.30800
Zr1915     Zr  0.93477416  0.31093837  0.42266010     2.17500
O1916       O  0.96606588  0.29515939  0.42795041    -0.51600
O1917       O  0.94407616  0.33872466  0.40429472    -0.74800
O1918       O  0.94414315  0.29813875  0.39008376    -0.81600
O1919       O  0.93153250  0.34687267  0.46501708    -0.83300
O1920       O  0.91838201  0.28106919  0.37931254    -0.78900
O1921       O  0.95189006  0.33619229  0.44124518    -0.90600
O1922       O  0.91511652  0.35227555  0.39564491    -0.76500
O1923       O  0.90901856  0.30877355  0.40012803    -0.86000
O1924       O  0.91208638  0.33622807  0.42996152    -0.85700
O1925       O  0.92002381  0.28013764  0.42820479    -0.72500
O1926       O  0.92309022  0.30510992  0.45495277    -0.84600
Zr1927     Zr  0.86050656  0.30111240  0.44176751     2.26400
Zr1928     Zr  0.89473904  0.27854074  0.40474287     2.06300
Zr1929     Zr  0.90107634  0.33124759  0.46150021     2.10000
Zr1930     Zr  0.88729136  0.33467215  0.40636525     1.78800
O1931       O  0.91270962  0.32959286  0.49445515    -0.93400
O1932       O  0.88513369  0.33108324  0.37150871    -0.41200
O1933       O  0.87529160  0.33138817  0.43831218    -0.77900
O1934       O  0.87188302  0.30453054  0.40963182    -0.96600
O1935       O  0.88178646  0.27447116  0.43595325    -0.89900
O1936       O  0.88504461  0.30208459  0.46581324    -0.92700
C1937       C  0.93376920  0.35207747  0.39664975     1.01100
C1938       C  0.94739317  0.34748771  0.45563637     1.14000
C1939       C  0.93510347  0.28844041  0.37687834     1.04800
O1940       O  0.87753176  0.27503585  0.37431136    -0.94900
O1941       O  0.86634629  0.25909351  0.40735242    -0.90600
O1942       O  0.84379502  0.27480921  0.42581953    -0.83700
C1943       C  0.84923354  0.26093173  0.41453163     1.11400
O1944       O  0.93662665  0.25898414  0.46616005    -0.96800
Zr1945     Zr  0.90590195  0.27556092  0.45985713     1.88900
O1946       O  0.84990464  0.28097272  0.46612987    -0.73500
O1947       O  0.91009180  0.24679618  0.40208606    -0.52700
O1948       O  0.90473323  0.24124755  0.45294327    -0.97400
O1949       O  0.91620660  0.27974903  0.49314206    -0.54600
O1950       O  0.87647579  0.26597616  0.47883368    -0.74000
C1951       C  0.85795075  0.27001193  0.47822977     0.98400
O1952       O  0.82832930  0.31267726  0.43246966    -0.62800
O1953       O  0.89326887  0.36545432  0.46290146    -0.57600
O1954       O  0.84806784  0.32215612  0.46752577    -0.94300
O1955       O  0.87338666  0.33745831  0.48139334    -0.92700
O1956       O  0.87808204  0.36800812  0.41305051    -0.93100
O1957       O  0.85522249  0.34424215  0.39479037    -0.91900
C1958       C  0.85539539  0.33357596  0.48023838     1.17200
H1959       H  0.91778740  0.34871705  0.43011482     0.33100
H1960       H  0.86123354  0.30343040  0.40066883     0.44000
H1961       H  0.87990593  0.30175237  0.47868450     0.37500
H1962       H  0.92953376  0.27006025  0.42562057     0.34000
H1963       H  0.89235497  0.34196367  0.36638825     0.25800
H1964       H  0.89921357  0.23775725  0.40216947     0.31700
H1965       H  0.89283941  0.23691879  0.45936329     0.37600
H1966       H  0.88110913  0.37477059  0.40110353     0.32100
H1967       H  0.89595656  0.37004042  0.44984505     0.31000
H1968       H  0.92279011  0.31928935  0.49417286     0.32700
H1969       H  0.91661029  0.26665733  0.49832405     0.31600
H1970       H  0.84611508  0.33971453  0.40460418     0.35600
H1971       H  0.81976127  0.30904047  0.44314108     0.28300
H1972       H  0.96450769  0.28201743  0.42262704     0.32600
H1973       H  0.94652050  0.26897479  0.46494067     0.35400
H1974       H  0.90344009  0.37126613  0.47106818     0.28000
H1975       H  0.82894186  0.32680617  0.43358989     0.40900
H1976       H  0.88248131  0.26276045  0.36865974     0.31000
H1977       H  0.89321507  0.31963295  0.36810264     0.38600
H1978       H  0.90500089  0.28609928  0.49970413     0.30400
H1979       H  0.91525332  0.24575089  0.38884198     0.30500
H1980       H  0.96668080  0.29351530  0.44202352     0.30800
Zr1981     Zr  0.91970633  0.42626338  0.25890490     2.17500
O1982       O  0.93326673  0.43204170  0.22734174    -0.51600
O1983       O  0.90062205  0.39717280  0.25290962    -0.74800
O1984       O  0.94074433  0.39905014  0.24977075    -0.81600
O1985       O  0.89222045  0.47126483  0.25161383    -0.83300
O1986       O  0.95747053  0.39056021  0.27657977    -0.78900
O1987       O  0.89339795  0.44089521  0.24004403    -0.90600
O1988       O  0.88591813  0.39137243  0.28135094    -0.76500
O1989       O  0.91963453  0.40673900  0.28641632    -0.86000
O1990       O  0.89192939  0.43619700  0.27750514    -0.85700
O1991       O  0.94982813  0.43252032  0.27560088    -0.72500
O1992       O  0.92521644  0.45934698  0.26806660    -0.84600
Zr1993     Zr  0.92507104  0.45377623  0.33083987     2.26400
Zr1994     Zr  0.94928295  0.41245813  0.30295043     2.06300
Zr1995     Zr  0.89701965  0.46911307  0.28613232     2.10000
Zr1996     Zr  0.89181120  0.41623984  0.30452153     1.78800
O1997       O  0.90129551  0.50325200  0.28172142    -0.93400
O1998       O  0.89237383  0.38683802  0.32275732    -0.41200
O1999       O  0.89586449  0.44881098  0.31323898    -0.77900
O2000       O  0.92105049  0.42074946  0.32167417    -0.96600
O2001       O  0.95380841  0.44472678  0.31357053    -0.89900
O2002       O  0.92594415  0.47492751  0.30426731    -0.92700
C2003       C  0.89027918  0.38692715  0.26400778     1.01100
C2004       C  0.88579951  0.45791842  0.24064942     1.14000
C2005       C  0.95279557  0.38817683  0.25887504     1.04800
O2006       O  0.95043570  0.37906189  0.31237168    -0.94900
O2007       O  0.95609773  0.40820395  0.33667194    -0.90600
O2008       O  0.93901394  0.43099174  0.35365367    -0.83700
C2009       C  0.94934707  0.41543252  0.35246597     1.11400
O2010       O  0.96882518  0.47546990  0.25700011    -0.96800
Zr2011     Zr  0.95427360  0.46507050  0.28674467     1.88900
O2012       O  0.94531157  0.48091034  0.33589477    -0.73500
O2013       O  0.98447558  0.41493749  0.30210810    -0.52700
O2014       O  0.98792488  0.45556998  0.28039925    -0.97400
O2015       O  0.95266869  0.49951687  0.28185346    -0.54600
O2016       O  0.97088166  0.47554289  0.31645403    -0.74000
C2017       C  0.96333075  0.48185375  0.33228507     0.98400
O2018       O  0.92300279  0.46117303  0.36521583    -0.62800
O2019       O  0.86218757  0.47386495  0.28125622    -0.57600
O2020       O  0.89441057  0.46961983  0.33936939    -0.94300
O2021       O  0.87898839  0.48218080  0.31349737    -0.92700
O2022       O  0.85739321  0.42013191  0.29746073    -0.93100
O2023       O  0.87420243  0.41815288  0.33483362    -0.91900
C2024       C  0.88041492  0.47906885  0.33151921     1.17200
H2025       H  0.87980764  0.43449264  0.27081062     0.33100
H2026       H  0.91954895  0.41244429  0.33242780     0.44000
H2027       H  0.92606140  0.48826463  0.30821862     0.37500
H2028       H  0.96061571  0.42878928  0.26739926     0.34000
H2029       H  0.88331484  0.37815082  0.31601424     0.25800
H2030       H  0.98932130  0.40433878  0.31014276     0.31700
H2031       H  0.99572533  0.46566385  0.28671609     0.37600
H2032       H  0.85147459  0.40856972  0.30271970     0.32100
H2033       H  0.86083296  0.48274907  0.27043597     0.31000
H2034       H  0.89082119  0.50701832  0.27272863     0.32700
H2035       H  0.95246869  0.50547482  0.29488229     0.31600
H2036       H  0.88197678  0.42673652  0.34317756     0.35600
H2037       H  0.92100544  0.47523384  0.36631117     0.28300
H2038       H  0.93350286  0.44617125  0.22652544     0.32600
H2039       H  0.96321497  0.46700661  0.24693730     0.35400
H2040       H  0.85744405  0.46146842  0.27619563     0.28000
H2041       H  0.91058097  0.45581718  0.36951277     0.40900
H2042       H  0.96440637  0.37593064  0.31406607     0.31000
H2043       H  0.90542619  0.38109803  0.32038813     0.38600
H2044       H  0.93952818  0.50203085  0.27661347     0.30400
H2045       H  0.98821043  0.41103598  0.28884966     0.30500
H2046       H  0.92312134  0.42806419  0.21808782     0.30800
Zr2047     Zr  0.71114632  0.51243470  0.22316783     2.17500
O2048       O  0.68621379  0.52141082  0.19992792    -0.51600
O2049       O  0.70745114  0.54763476  0.22639010    -0.74800
O2050       O  0.67863806  0.50738696  0.23515490    -0.81600
O2051       O  0.74696550  0.49748738  0.18377882    -0.83300
O2052       O  0.67849188  0.49779368  0.26612083    -0.78900
O2053       O  0.71518634  0.50511871  0.18884598    -0.90600
O2054       O  0.72791517  0.55981724  0.24865390    -0.76500
O2055       O  0.71670098  0.52157804  0.25570524    -0.86000
O2056       O  0.74337378  0.52442245  0.22356247    -0.85700
O2057       O  0.70719221  0.48345299  0.24102825    -0.72500
O2058       O  0.73203021  0.48625350  0.21313843    -0.84600
Zr2059     Zr  0.76606592  0.47812148  0.26485355     2.26400
Zr2060     Zr  0.71311231  0.49294863  0.27380996     2.06300
Zr2061     Zr  0.76428661  0.49788687  0.21419471     2.10000
Zr2062     Zr  0.74918325  0.53291277  0.25636859     1.78800
O2063       O  0.78051143  0.48180758  0.18709111    -0.93400
O2064       O  0.74062994  0.54874622  0.28678931    -0.41200
O2065       O  0.77083515  0.50683929  0.24688509    -0.77900
O2066       O  0.74558371  0.50484959  0.27492030    -0.96600
O2067       O  0.73388510  0.46645611  0.26392581    -0.89900
O2068       O  0.76062098  0.46944596  0.23216118    -0.92700
C2069       C  0.71396048  0.56173528  0.23667833     1.01100
C2070       C  0.72945316  0.50013675  0.17783522     1.14000
C2071       C  0.66984374  0.50236112  0.25041956     1.04800
O2072       O  0.70134553  0.51728203  0.29670490    -0.94900
O2073       O  0.72786676  0.48511639  0.30475773    -0.90600
O2074       O  0.75966430  0.47703982  0.29938102    -0.83700
C2075       C  0.74500750  0.48033961  0.31054730     1.11400
O2076       O  0.70056477  0.44832634  0.21192455    -0.96800
Zr2077     Zr  0.72850631  0.45788678  0.23106657     1.88900
O2078       O  0.76856918  0.44291223  0.26312670    -0.73500
O2079       O  0.69455780  0.46733521  0.28761638    -0.52700
O2080       O  0.70788185  0.43643341  0.24867201    -0.97400
O2081       O  0.73730268  0.44279194  0.20027904    -0.54600
O2082       O  0.74917408  0.43127474  0.23954924    -0.74000
C2083       C  0.76219101  0.42907422  0.25238216     0.98400
O2084       O  0.79266089  0.48179050  0.28770510    -0.62800
O2085       O  0.78005861  0.52706711  0.20452254    -0.57600
O2086       O  0.79775311  0.47299504  0.25002878    -0.94300
O2087       O  0.79714171  0.48546932  0.22015454    -0.92700
O2088       O  0.77040926  0.55462087  0.23978410    -0.93100
O2089       O  0.77705746  0.54161148  0.27597047    -0.91900
C2090       C  0.80567295  0.47657086  0.23387487     1.17200
H2091       H  0.74452929  0.53517833  0.21518485     0.33100
H2092       H  0.74882552  0.50899132  0.28780554     0.44000
H2093       H  0.76967201  0.45965306  0.22758067     0.37500
H2094       H  0.69466049  0.47772628  0.23940790     0.34000
H2095       H  0.74226975  0.56257903  0.28458809     0.25800
H2096       H  0.70427200  0.45713812  0.29045394     0.31700
H2097       H  0.71591648  0.43189138  0.25952405     0.37600
H2098       H  0.76395947  0.56738865  0.24092500     0.32100
H2099       H  0.79405889  0.52457315  0.20682550     0.31000
H2100       H  0.78861649  0.49170958  0.18132026     0.32700
H2101       H  0.74903080  0.43482279  0.20282442     0.31600
H2102       H  0.78033481  0.52989861  0.28315494     0.35600
H2103       H  0.80065062  0.46989413  0.28632354     0.28300
H2104       H  0.67825450  0.53163981  0.20631520     0.32600
H2105       H  0.70146327  0.43416744  0.21094563     0.35400
H2106       H  0.77874761  0.52708638  0.19036493     0.28000
H2107       H  0.80080622  0.49202370  0.28258506     0.40900
H2108       H  0.69258916  0.51037190  0.30529266     0.31000
H2109       H  0.72642326  0.54724172  0.28790484     0.38600
H2110       H  0.74207290  0.45336744  0.19243381     0.30400
H2111       H  0.69041797  0.47240888  0.30038153     0.30500
H2112       H  0.67750699  0.51032042  0.19899466     0.30800
Zr2113     Zr  0.72745861  0.71367880  0.00465616     2.17500
O2114       O  0.70228839  0.69547795  0.02030361    -0.51600
O2115       O  0.73167491  0.71746871  0.04025670    -0.74800
O2116       O  0.73128639  0.67833290  0.00170138    -0.81600
O2117       O  0.69563117  0.75780166  0.99016983    -0.83300
O2118       O  0.76276287  0.67167736  0.99377504    -0.78900
O2119       O  0.69459078  0.72675468  0.99927485    -0.90600
O2120       O  0.75869414  0.73434944  0.04723230    -0.76500
O2121       O  0.76149394  0.71234891  0.01023882    -0.86000
O2122       O  0.73669179  0.74604352  0.01131149    -0.85700
O2123       O  0.74128314  0.70129770  0.97480955    -0.72500
O2124       O  0.71987538  0.73210006  0.97652562    -0.84600
Zr2125     Zr  0.77865733  0.74936852  0.95966425     2.26400
Zr2126     Zr  0.77548008  0.70027701  0.98074778     2.06300
Zr2127     Zr  0.72974748  0.76422449  0.98304658     2.10000
Zr2128     Zr  0.77083307  0.74454707  0.01674855     1.78800
O2129       O  0.71130798  0.78069446  0.95818305    -0.93400
O2130       O  0.79791498  0.72815178  0.03238300    -0.41200
O2131       O  0.76405860  0.76267089  0.98867213    -0.77900
O2132       O  0.78613872  0.73196781  0.98831401    -0.96600
O2133       O  0.76848441  0.71777970  0.95235375    -0.89900
O2134       O  0.74450442  0.75192983  0.95393685    -0.92700
C2135       C  0.74391507  0.72495069  0.05226979     1.01100
C2136       C  0.68636628  0.74280899  0.99493285     1.14000
C2137       C  0.74566918  0.66661118  0.99819716     1.04800
O2138       O  0.79930820  0.68264887  0.99965989    -0.94900
O2139       O  0.80854432  0.70319043  0.97023836    -0.90600
O2140       O  0.81031255  0.73252580  0.95685142    -0.83700
C2141       C  0.81783916  0.71636194  0.96196318     1.11400
O2142       O  0.70469300  0.70226403  0.94252887    -0.96800
Zr2143     Zr  0.73435356  0.72017870  0.94727179     1.88900
O2144       O  0.77585193  0.74639753  0.92453452    -0.73500
O2145       O  0.77670218  0.67708260  0.95413407    -0.52700
O2146       O  0.74020584  0.68962018  0.93051797    -0.97400
O2147       O  0.70816948  0.73707569  0.93069156    -0.54600
O2148       O  0.74880687  0.72964604  0.91727208    -0.74000
C2149       C  0.76385195  0.73892525  0.91249145     0.98400
O2150       O  0.80831287  0.76661325  0.95341440    -0.62800
O2151       O  0.72000288  0.78837960  0.00712040    -0.57600
O2152       O  0.77380978  0.78419842  0.95825537    -0.94300
O2153       O  0.74697475  0.79347364  0.97537734    -0.92700
O2154       O  0.76374243  0.77376141  0.03544912    -0.93100
O2155       O  0.79794827  0.76624796  0.01985038    -0.91900
C2156       C  0.76211458  0.79708887  0.96534105     1.17200
H2157       H  0.72974044  0.75130638  0.02229667     0.33100
H2158       H  0.79985966  0.73205226  0.99112558     0.44000
H2159       H  0.74176205  0.76026958  0.94334982     0.37500
H2160       H  0.73663633  0.68890634  0.97088716     0.34000
H2161       H  0.80067457  0.73609893  0.04397538     0.25800
H2162       H  0.78631143  0.68211744  0.94507794     0.31700
H2163       H  0.75089692  0.69195256  0.92143513     0.37600
H2164       H  0.75095906  0.77179908  0.04149000     0.32100
H2165       H  0.71013651  0.79640817  0.00055016     0.31000
H2166       H  0.69774480  0.77649600  0.95941037     0.32700
H2167       H  0.71449031  0.74741672  0.92366390     0.31600
H2168       H  0.80743993  0.76168252  0.01003580     0.35600
H2169       H  0.80556915  0.77409301  0.94177256     0.28300
H2170       H  0.69563547  0.70461954  0.02928688     0.32600
H2171       H  0.69631694  0.70617035  0.95353637     0.35400
H2172       H  0.71255702  0.78143952  0.01681796     0.28000
H2173       H  0.80956086  0.77619221  0.96401158     0.40900
H2174       H  0.79733330  0.68749433  0.01298875     0.31000
H2175       H  0.79236512  0.71631329  0.03744910     0.38600
H2176       H  0.70074634  0.74382377  0.94104378     0.30400
H2177       H  0.78314710  0.66558215  0.95949889     0.30500
H2178       H  0.69252655  0.69258600  0.01025497     0.30800
Zr2179     Zr  0.15530864  0.18202981  0.21259368     2.17500
O2180       O  0.17287964  0.19009113  0.24195078    -0.51600
O2181       O  0.12886560  0.16301606  0.22448452    -0.74800
O2182       O  0.12964395  0.20137524  0.22895267    -0.81600
O2183       O  0.17968045  0.13602241  0.19496752    -0.83300
O2184       O  0.13285747  0.23077285  0.21710684    -0.78900
O2185       O  0.16817539  0.15018401  0.22256913    -0.90600
O2186       O  0.10616578  0.16192185  0.20077828    -0.76500
O2187       O  0.12895763  0.19543310  0.19477328    -0.86000
O2188       O  0.14828260  0.15956149  0.18739059    -0.85700
O2189       O  0.16573101  0.21248097  0.20025057    -0.72500
O2190       O  0.18426467  0.17960811  0.19286974    -0.84600
Zr2191     Zr  0.15810409  0.19933556  0.13944742     2.26400
Zr2192     Zr  0.13848241  0.22583822  0.18282329     2.06300
Zr2193     Zr  0.17655430  0.15703678  0.16770810     2.10000
Zr2194     Zr  0.12088447  0.17210090  0.17114552     1.78800
O2195       O  0.21038668  0.14644480  0.16969347    -0.93400
O2196       O  0.08793581  0.18532451  0.17125604    -0.41200
O2197       O  0.14879387  0.16877997  0.15087156    -0.77900
O2198       O  0.12947021  0.20229308  0.15873444    -0.96600
O2199       O  0.16645702  0.22273042  0.16305224    -0.89900
O2200       O  0.18608515  0.18677555  0.15527109    -0.92700
C2201       C  0.11214691  0.15834210  0.21779761     1.01100
C2202       C  0.17553529  0.13572160  0.21297697     1.14000
C2203       C  0.12376401  0.21890985  0.22727625     1.04800
O2204       O  0.10820465  0.24356691  0.18860046    -0.94900
O2205       O  0.12381196  0.23901016  0.15343911    -0.90600
O2206       O  0.14865728  0.23217665  0.13412283    -0.83700
C2207       C  0.13126397  0.23819001  0.13653845     1.11400
O2208       O  0.21175142  0.21662867  0.20872405    -0.96800
Zr2209     Zr  0.19370520  0.20967976  0.17935373     1.88900
O2210       O  0.18380940  0.21620888  0.12516261    -0.73500
O2211       O  0.15571174  0.25591591  0.18482544    -0.52700
O2212       O  0.20020935  0.24339401  0.18545535    -0.97400
O2213       O  0.22578769  0.19436379  0.17704844    -0.54600
O2214       O  0.20635951  0.22163827  0.14851583    -0.74000
C2215       C  0.19995471  0.22276085  0.13108914     0.98400
O2216       O  0.13601825  0.19499500  0.11250967    -0.62800
O2217       O  0.16645380  0.12573124  0.15573477    -0.57600
O2218       O  0.17282636  0.17832359  0.11600058    -0.94300
O2219       O  0.18448443  0.15337799  0.13344003    -0.92700
O2220       O  0.11483484  0.13792644  0.16782378    -0.93100
O2221       O  0.10520333  0.16537458  0.14034672    -0.91900
C2222       C  0.18170850  0.16222392  0.11751900     1.17200
H2223       H  0.14485333  0.14725202  0.19225982     0.33100
H2224       H  0.11845245  0.20618417  0.15111164     0.44000
H2225       H  0.19700485  0.18503488  0.14670010     0.37500
H2226       H  0.16893971  0.22089433  0.21093477     0.34000
H2227       H  0.08674859  0.19291521  0.15946115     0.25800
H2228       H  0.14542501  0.26600446  0.18454842     0.31700
H2229       H  0.19500772  0.25004533  0.17408027     0.37600
H2230       H  0.12277493  0.13347705  0.15670349     0.32100
H2231       H  0.17803788  0.11727110  0.15724622     0.31000
H2232       H  0.21694465  0.15304846  0.15915547     0.32700
H2233       H  0.22733736  0.18701155  0.18897026     0.31600
H2234       H  0.11555948  0.15980226  0.13198726     0.35600
H2235       H  0.13534121  0.18094727  0.11068509     0.28300
H2236       H  0.17689187  0.17764896  0.24739302     0.32600
H2237       H  0.20743639  0.20692403  0.21786262     0.35400
H2238       H  0.15713002  0.12129052  0.16539123     0.28000
H2239       H  0.12304612  0.19863881  0.11762746     0.40900
H2240       H  0.11214847  0.25644663  0.19312187     0.31000
H2241       H  0.07955230  0.17416710  0.16889469     0.38600
H2242       H  0.23503710  0.20497662  0.17843150     0.30400
H2243       H  0.16082926  0.25652148  0.19811031     0.30500
H2244       H  0.16280948  0.19524673  0.25088710     0.30800
Zr2245     Zr  0.03498957  0.06161510  0.22606373     2.17500
O2246       O  0.01640172  0.05628269  0.25513006    -0.51600
O2247       O  0.05408256  0.08962183  0.23568612    -0.74800
O2248       O  0.05954518  0.04809459  0.24811138    -0.81600
O2249       O  0.00222290  0.09670067  0.19864458    -0.83300
O2250       O  0.06058168  0.01705586  0.23912104    -0.78900
O2251       O  0.01183041  0.08920823  0.22892492    -0.90600
O2252       O  0.08230333  0.08386007  0.22000158    -0.76500
O2253       O  0.06569017  0.04991624  0.21437173    -0.86000
O2254       O  0.04247689  0.08101020  0.19942343    -0.85700
O2255       O  0.03074754  0.02834427  0.21593119    -0.72500
O2256       O  0.00996777  0.05552240  0.20243911    -0.84600
Zr2257     Zr  0.04621305  0.03237532  0.15541178     2.26400
Zr2258     Zr  0.06202887  0.01699982  0.20439331     2.06300
Zr2259     Zr  0.01801635  0.07515542  0.17600260     2.10000
Zr2260     Zr  0.07361642  0.07020239  0.18894101     1.78800
O2261       O  0.98322708  0.07785756  0.16997522    -0.93400
O2262       O  0.10733330  0.06048857  0.19410040    -0.41200
O2263       O  0.04943177  0.06546748  0.16464593    -0.77900
O2264       O  0.07128755  0.03760742  0.17871404    -0.96600
O2265       O  0.03780009  0.01178281  0.18060356    -0.89900
O2266       O  0.01477826  0.04293193  0.16567010    -0.92700
C2267       C  0.07174297  0.09375057  0.23172879     1.01100
C2268       C  0.00202947  0.09946688  0.21685025     1.14000
C2269       C  0.06649658  0.03088563  0.24964498     1.04800
O2270       O  0.09273629  0.00581773  0.21794495    -0.94900
O2271       O  0.08343542  0.00229373  0.17986195    -0.90600
O2272       O  0.06277504  0.00152578  0.15505988    -0.83700
C2273       C  0.07962222  0.99864369  0.16207500     1.11400
O2274       O  0.98624997  0.01197869  0.21701262    -0.96800
Zr2275     Zr  0.00679008  0.02274450  0.19110238     1.88900
O2276       O  0.02501750  0.00986907  0.14035358    -0.73500
O2277       O  0.05069948  0.98445118  0.20736724    -0.52700
O2278       O  0.00794739  0.98844151  0.19665448    -0.97400
O2279       O  0.97291959  0.03317613  0.18891865    -0.54600
O2280       O  0.99785536  0.00944592  0.15885236    -0.74000
C2281       C  0.00731158  0.00571913  0.14311357     0.98400
O2282       O  0.06924395  0.03432220  0.12909415    -0.62800
O2283       O  0.02445807  0.10723580  0.16478498    -0.57600
O2284       O  0.03261368  0.04855343  0.12820361    -0.94300
O2285       O  0.01631884  0.07427101  0.14123254    -0.92700
O2286       O  0.07519344  0.10419122  0.18198032    -0.93100
O2287       O  0.09429571  0.07641834  0.16153969    -0.91900
C2288       C  0.02217019  0.06381469  0.12685690     1.17200
H2289       H  0.04250782  0.09450004  0.20270326     0.33100
H2290       H  0.08384924  0.03460912  0.17318315     0.44000
H2291       H  0.00520331  0.04257459  0.15553352     0.37500
H2292       H  0.02696442  0.02112960  0.22695267     0.34000
H2293       H  0.11284110  0.07078847  0.20229137     0.25800
H2294       H  0.05702166  0.97720203  0.19663847     0.31700
H2295       H  0.00882451  0.98234890  0.18370955     0.37600
H2296       H  0.08751622  0.10841475  0.18788921     0.32100
H2297       H  0.02859077  0.11458653  0.17634509     0.31000
H2298       H  0.98165527  0.07612943  0.15592553     0.32700
H2299       H  0.97138171  0.03759825  0.17558435     0.31600
H2300       H  0.09165354  0.06586630  0.15224113     0.35600
H2301       H  0.06816808  0.02202723  0.12187935     0.28300
H2302       H  0.01880669  0.06766480  0.26344797     0.32600
H2303       H  0.98917525  0.02065305  0.22802540     0.35400
H2304       H  0.03641522  0.10568777  0.15698690     0.28000
H2305       H  0.08221717  0.03374852  0.13518796     0.40900
H2306       H  0.10077334  0.01738404  0.21896861     0.31000
H2307       H  0.10665560  0.04935094  0.20261036     0.38600
H2308       H  0.97200307  0.04504161  0.19693591     0.30400
H2309       H  0.05724821  0.97966534  0.21903214     0.30500
H2310       H  0.02328153  0.04561728  0.26156665     0.30800
Zr2311     Zr  0.04667793  0.20554255  0.04528128     2.17500
O2312       O  0.02805039  0.23398652  0.03643287    -0.51600
O2313       O  0.07023174  0.21937485  0.06733373    -0.74800
O2314       O  0.02965931  0.21525474  0.07596949    -0.81600
O2315       O  0.06797484  0.20689445  0.99696289    -0.83300
O2316       O  0.01900173  0.18813001  0.08983235    -0.78900
O2317       O  0.07036929  0.22284515  0.02498466    -0.90600
O2318       O  0.09283205  0.19581963  0.07249124    -0.76500
O2319       O  0.05311099  0.18187846  0.06870698    -0.86000
O2320       O  0.07516341  0.18777162  0.03509219    -0.85700
O2321       O  0.01845746  0.18523167  0.04504102    -0.72500
O2322       O  0.03845845  0.19012164  0.01475149    -0.84600
Zr2323     Zr  0.04806418  0.13023584  0.02861159     2.26400
Zr2324     Zr  0.02571452  0.16160502  0.06833354     2.06300
Zr2325     Zr  0.06751647  0.17344299  0.00449602     2.10000
Zr2326     Zr  0.08193857  0.16529851  0.05900882     1.78800
O2327       O  0.06074952  0.17761551  0.97051776    -0.93400
O2328       O  0.08568552  0.16157889  0.09356186    -0.41200
O2329       O  0.07564441  0.15038648  0.02824758    -0.77900
O2330       O  0.05492252  0.14425115  0.05976361    -0.96600
O2331       O  0.01882344  0.14596002  0.03868565    -0.89900
O2332       O  0.04037064  0.15271510  0.00453610    -0.92700
C2333       C  0.08621239  0.21307256  0.07460272     1.01100
C2334       C  0.07648067  0.21910148  0.00767060     1.14000
C2335       C  0.02119271  0.20623366  0.08968404     1.04800
O2336       O  0.02821114  0.15275288  0.10187645    -0.94900
O2337       O  0.01792445  0.12883819  0.07366586    -0.90600
O2338       O  0.03246038  0.10956788  0.05103794    -0.83700
C2339       C  0.02200448  0.11240917  0.06611137     1.11400
O2340       O  0.99399572  0.19669190  0.00352415    -0.96800
Zr2341     Zr  0.01132301  0.16850119  0.01513705     1.88900
O2342       O  0.02255957  0.11414967  0.01130136    -0.73500
O2343       O  0.99047101  0.16413779  0.07011784    -0.52700
O2344       O  0.97862586  0.17219942  0.02811929    -0.97400
O2345       O  0.00507710  0.16758147  0.98069460    -0.54600
O2346       O  0.99746239  0.13574501  0.01111452    -0.74000
C2347       C  0.00454434  0.11844267  0.00933717     0.98400
O2348       O  0.06872365  0.10194252  0.03317677    -0.62800
O2349       O  0.10223892  0.17831846  0.00111975    -0.57600
O2350       O  0.06640393  0.12031260  0.00026219    -0.94300
O2351       O  0.08024840  0.14587386  0.98653330    -0.92700
O2352       O  0.11503979  0.16737824  0.04705496    -0.93100
O2353       O  0.10184466  0.13716960  0.06640913    -0.91900
C2354       C  0.07750149  0.12787020  0.98777724     1.17200
H2355       H  0.08678152  0.19521867  0.03430175     0.33100
H2356       H  0.05749170  0.13432526  0.06892639     0.44000
H2357       H  0.03858956  0.14642997  0.99220835     0.37500
H2358       H  0.00719330  0.19275650  0.04905743     0.34000
H2359       H  0.07816576  0.17240731  0.09945783     0.25800
H2360       H  0.98584003  0.15287486  0.06269154     0.31700
H2361       H  0.97028241  0.16535634  0.01875802     0.37600
H2362       H  0.11747278  0.18123161  0.04605488     0.32100
H2363       H  0.10837989  0.16813002  0.00884749     0.31000
H2364       H  0.05060845  0.16824921  0.96729059     0.32700
H2365       H  0.00786734  0.15418046  0.97648928     0.31600
H2366       H  0.09264276  0.12649216  0.06688861     0.35600
H2367       H  0.07025483  0.10094856  0.04725740     0.28300
H2368       H  0.01527709  0.23249890  0.04266930     0.32600
H2369       H  0.99707464  0.20696310  0.01300544     0.35400
H2370       H  0.10528000  0.17456181  0.98767181     0.28000
H2371       H  0.06059596  0.09096456  0.02935365     0.40900
H2372       H  0.04191199  0.14858736  0.10354423     0.31000
H2373       H  0.07814859  0.15012149  0.09661129     0.38600
H2374       H  0.01562681  0.17506074  0.97507610     0.30400
H2375       H  0.98741036  0.16129208  0.08362754     0.30500
H2376       H  0.02538103  0.23202963  0.02256196     0.30800
Zr2377     Zr  0.16008541  0.01183695  0.06265346     2.17500
O2378       O  0.17701665  0.98117039  0.05807625    -0.51600
O2379       O  0.13948301  0.00454633  0.08976037    -0.74800
O2380       O  0.17890171  0.00727613  0.09229721    -0.81600
O2381       O  0.13299892  0.99881422  0.01846706    -0.83300
O2382       O  0.18729950  0.03715628  0.10203546    -0.78900
O2383       O  0.13534760  0.99013563  0.04927048    -0.90600
O2384       O  0.12129154  0.03138761  0.09667083    -0.76500
O2385       O  0.15456825  0.03992798  0.08193651    -0.86000
O2386       O  0.13070593  0.02680845  0.05167665    -0.85700
O2387       O  0.18817405  0.03151508  0.05737573    -0.72500
O2388       O  0.16724384  0.02008787  0.02979132    -0.84600
Zr2389     Zr  0.15630724  0.08143003  0.03357837     2.26400
Zr2390     Zr  0.18176351  0.05940984  0.07681543     2.06300
Zr2391     Zr  0.13692551  0.03316629  0.01870528     2.10000
Zr2392     Zr  0.12515464  0.05432730  0.07136155     1.78800
O2393       O  0.14495342  0.01872226  0.98753041    -0.93400
O2394       O  0.12260806  0.07411009  0.10055044    -0.41200
O2395       O  0.12920755  0.06121678  0.03803078    -0.77900
O2396       O  0.15197788  0.07477236  0.06695232    -0.96600
O2397       O  0.18645581  0.06893067  0.04480894    -0.89900
O2398       O  0.16334443  0.05392777  0.01373148    -0.92700
C2399       C  0.12737726  0.01434191  0.10018016     1.01100
C2400       C  0.12717979  0.98915789  0.03259954     1.14000
C2401       C  0.18624590  0.01912359  0.10462784     1.04800
O2402       O  0.17869526  0.07711795  0.10720008    -0.94900
O2403       O  0.19299313  0.09144776  0.07426812    -0.90600
O2404       O  0.17601803  0.10538272  0.05004996    -0.83700
C2405       C  0.18819794  0.10584288  0.06415847     1.11400
O2406       O  0.21266212  0.01363543  0.01599615    -0.96800
Zr2407     Zr  0.19383524  0.04226031  0.02506535     1.88900
O2408       O  0.17788827  0.08684071  0.00748927    -0.73500
O2409       O  0.21675281  0.05495128  0.08037372    -0.52700
O2410       O  0.22663671  0.04090414  0.03811735    -0.97400
O2411       O  0.19841102  0.03763702  0.99059310    -0.54600
O2412       O  0.20601847  0.07543350  0.01773374    -0.74000
C2413       C  0.19567690  0.08945737  0.01101831     0.98400
O2414       O  0.13879918  0.11211456  0.03588320    -0.62800
O2415       O  0.10213704  0.02929427  0.01410547    -0.57600
O2416       O  0.13551511  0.08453787  0.00568646    -0.94300
O2417       O  0.12485675  0.05552811  0.99521227    -0.92700
O2418       O  0.09236411  0.04233944  0.06767740    -0.93100
O2419       O  0.10137737  0.08037292  0.06821350    -0.91900
C2420       C  0.12606138  0.07371640  0.99392179     1.17200
H2421       H  0.11919948  0.01938939  0.05318371     0.33100
H2422       H  0.14992799  0.08660310  0.07419625     0.44000
H2423       H  0.16397856  0.05664205  0.00020458     0.37500
H2424       H  0.19964944  0.02487115  0.06197922     0.34000
H2425       H  0.10947410  0.07168713  0.10560132     0.25800
H2426       H  0.22248126  0.06508566  0.07258193     0.31700
H2427       H  0.23303190  0.05235360  0.03315802     0.37600
H2428       H  0.08885880  0.04482151  0.05415447     0.32100
H2429       H  0.10104161  0.02031578  0.00297928     0.31000
H2430       H  0.13311841  0.02057294  0.97964996     0.32700
H2431       H  0.19698899  0.05059404  0.98521607     0.31600
H2432       H  0.10882320  0.09105337  0.06300023     0.35600
H2433       H  0.14032188  0.11809552  0.02324007     0.28300
H2434       H  0.17752009  0.97917679  0.04396572     0.32600
H2435       H  0.20684184  0.00332519  0.02349556     0.35400
H2436       H  0.09772671  0.02191879  0.02519415     0.28000
H2437       H  0.12492229  0.10873980  0.03638363     0.40900
H2438       H  0.16696417  0.07200088  0.11327489     0.31000
H2439       H  0.13150037  0.06784095  0.10976800     0.38600
H2440       H  0.18674345  0.03078367  0.98613317     0.30400
H2441       H  0.21949147  0.05889132  0.09383081     0.30500
H2442       H  0.16777151  0.97156389  0.06255333     0.30800
Zr2443     Zr  0.24923451  0.25827375  0.96574303     2.17500
O2444       O  0.27335476  0.27213164  0.94477188    -0.51600
O2445       O  0.24973899  0.29376872  0.96933087    -0.74800
O2446       O  0.24135495  0.25443291  0.93171608    -0.81600
O2447       O  0.28724001  0.24281703  0.00363231    -0.83300
O2448       O  0.21024565  0.24460067  0.92790605    -0.78900
O2449       O  0.28324321  0.25056582  0.97235880    -0.90600
O2450       O  0.22609738  0.30413044  0.98974917    -0.76500
O2451       O  0.21580759  0.26713116  0.96925686    -0.86000
O2452       O  0.24616329  0.26691928  0.99882947    -0.85700
O2453       O  0.23144602  0.22963075  0.95735222    -0.72500
O2454       O  0.25829019  0.23024766  0.98345724    -0.84600
Zr2455     Zr  0.20249286  0.22008714  0.01217530     2.26400
Zr2456     Zr  0.19779563  0.23881608  0.96083587     2.06300
Zr2457     Zr  0.25460660  0.23887256  0.01657082     2.10000
Zr2458     Zr  0.21280477  0.27550141  0.00263480     1.78800
O2459       O  0.27538358  0.21429913  0.03068660    -0.93400
O2460       O  0.18471224  0.29384775  0.99133054    -0.41200
O2461       O  0.22114538  0.24780646  0.02082470    -0.77900
O2462       O  0.19424357  0.24836219  0.99405412    -0.96600
O2463       O  0.20623065  0.21093666  0.97919874    -0.89900
O2464       O  0.23591512  0.21102774  0.00893884    -0.92700
C2465       C  0.24021460  0.30724196  0.97842109     1.01100
C2466       C  0.29393218  0.24631917  0.98688561     1.14000
C2467       C  0.22698063  0.24932823  0.92116511     1.04800
O2468       O  0.17592012  0.26279464  0.94726609    -0.94900
O2469       O  0.16460631  0.23344161  0.97319194    -0.90600
O2470       O  0.16787762  0.22458901  0.00435740    -0.83700
C2471       C  0.15747668  0.22926279  0.98973339     1.11400
O2472       O  0.26274531  0.19402454  0.95039257    -0.96800
Zr2473     Zr  0.23985014  0.20241058  0.97598534     1.88900
O2474       O  0.20361093  0.18443951  0.01053773    -0.73500
O2475       O  0.18500418  0.21274581  0.94104571    -0.52700
O2476       O  0.22666953  0.18290832  0.94983752    -0.97400
O2477       O  0.26994388  0.18736927  0.98706946    -0.54600
O2478       O  0.22805547  0.17401405  0.99102241    -0.74000
C2479       C  0.21404881  0.17091362  0.00252962     0.98400
O2480       O  0.18084368  0.20826492  0.03677226    -0.62800
O2481       O  0.26847802  0.26380364  0.03707633    -0.57600
O2482       O  0.21126149  0.22700351  0.04578375    -0.94300
O2483       O  0.24347628  0.23302359  0.04899363    -0.92700
O2484       O  0.22528401  0.29476263  0.02930440    -0.93100
O2485       O  0.18919360  0.28051728  0.02836086    -0.91900
C2486       C  0.22659121  0.23012418  0.05595259     1.17200
H2487       H  0.25460017  0.27733057  0.00226983     0.33100
H2488       H  0.18156433  0.25372322  0.99669700     0.44000
H2489       H  0.23934827  0.20065599  0.01732111     0.37500
H2490       H  0.23431404  0.22448980  0.94472925     0.34000
H2491       H  0.18557595  0.30645703  0.99802465     0.25800
H2492       H  0.17776747  0.20473544  0.95002884     0.31700
H2493       H  0.21260714  0.18223871  0.95257947     0.37600
H2494       H  0.23889308  0.29032891  0.03102595     0.32100
H2495       H  0.27611895  0.25674468  0.04678380     0.31000
H2496       H  0.28775950  0.22070789  0.03362200     0.32700
H2497       H  0.26867122  0.17360906  0.98369034     0.31600
H2498       H  0.18897044  0.26815622  0.03505134     0.35600
H2499       H  0.17235132  0.21929041  0.04063237     0.28300
H2500       H  0.26616087  0.28105565  0.93634689     0.32600
H2501       H  0.26858556  0.20633164  0.94697790     0.35400
H2502       H  0.27835817  0.26994898  0.02909283     0.28000
H2503       H  0.17213080  0.19918895  0.03008963     0.40900
H2504       H  0.16856184  0.25576556  0.93723424     0.31000
H2505       H  0.18762440  0.29651572  0.97774333     0.38600
H2506       H  0.26915772  0.18793083  0.00125136     0.30400
H2507       H  0.17482649  0.21884924  0.93305141     0.30500
H2508       H  0.27802411  0.26162108  0.93612851     0.30800
Zr2509     Zr  0.18403083  0.00848832  0.22982046     2.17500
O2510       O  0.15688341  0.00596693  0.20745568    -0.51600
O2511       O  0.18272016  0.04335070  0.22843662    -0.74800
O2512       O  0.15307199  0.01452528  0.24606020    -0.81600
O2513       O  0.22169868  0.99812467  0.18974314    -0.83300
O2514       O  0.15299133  0.00173642  0.27588197    -0.78900
O2515       O  0.19046553  0.00827557  0.19509185    -0.90600
O2516       O  0.20523913  0.05483533  0.24917198    -0.76500
O2517       O  0.19022507  0.01705429  0.26255891    -0.86000
O2518       O  0.21690648  0.01844004  0.23031010    -0.85700
O2519       O  0.17806417  0.98053403  0.24853123    -0.72500
O2520       O  0.20337351  0.98148051  0.21907829    -0.84600
Zr2521     Zr  0.23685056  0.97136965  0.27161885     2.26400
Zr2522     Zr  0.18562600  0.98902686  0.28147372     2.06300
Zr2523     Zr  0.23650920  0.99100212  0.22077762     2.10000
Zr2524     Zr  0.22276044  0.02732197  0.26285180     1.78800
O2525       O  0.24973091  0.96527865  0.20021022    -0.93400
O2526       O  0.21142788  0.04705266  0.29003506    -0.41200
O2527       O  0.24216552  0.99978277  0.25359837    -0.77900
O2528       O  0.21844659  0.99957660  0.28219980    -0.96600
O2529       O  0.20407025  0.96156708  0.27050148    -0.89900
O2530       O  0.23116235  0.96257709  0.23882896    -0.92700
C2531       C  0.19148773  0.05725919  0.23682969     1.01100
C2532       C  0.20494752  0.00408330  0.18394341     1.14000
C2533       C  0.14490281  0.01094060  0.26213914     1.04800
O2534       O  0.17338387  0.00976928  0.30741836    -0.94900
O2535       O  0.20024166  0.98107545  0.31300258    -0.90600
O2536       O  0.23161177  0.97295651  0.30623681    -0.83700
C2537       C  0.21767642  0.97632409  0.31815532     1.11400
O2538       O  0.17188585  0.94995805  0.21387347    -0.96800
Zr2539     Zr  0.19774240  0.95379979  0.23752990     1.88900
O2540       O  0.23660625  0.93593540  0.27002614    -0.73500
O2541       O  0.16638407  0.96194899  0.29098988    -0.52700
O2542       O  0.17185576  0.93507447  0.25111185    -0.97400
O2543       O  0.20858803  0.93522763  0.20932573    -0.54600
O2544       O  0.21321269  0.92533896  0.24966986    -0.74000
C2545       C  0.22698313  0.92246835  0.26165130     0.98400
O2546       O  0.26198619  0.96051299  0.29387007    -0.62800
O2547       O  0.25649451  0.01411432  0.20462195    -0.57600
O2548       O  0.26973415  0.97888995  0.26112177    -0.94300
O2549       O  0.27053845  0.99032455  0.23091544    -0.92700
O2550       O  0.24906617  0.04415746  0.24767739    -0.93100
O2551       O  0.24849277  0.03536052  0.28547393    -0.91900
C2552       C  0.27886059  0.98561506  0.24668488     1.17200
H2553       H  0.21892155  0.02894453  0.22179484     0.33100
H2554       H  0.22208433  0.00391756  0.29491898     0.44000
H2555       H  0.23975209  0.95219276  0.23469257     0.37500
H2556       H  0.16459884  0.97708872  0.24741522     0.34000
H2557       H  0.19738290  0.04917728  0.28766043     0.25800
H2558       H  0.16204203  0.96529875  0.30420750     0.31700
H2559       H  0.17650226  0.93172273  0.26409420     0.37600
H2560       H  0.25869780  0.03399536  0.24406585     0.32100
H2561       H  0.26113766  0.00732020  0.19282425     0.31000
H2562       H  0.26291513  0.96260645  0.20529944     0.32700
H2563       H  0.22155157  0.92993606  0.21271848     0.31600
H2564       H  0.25683686  0.02365803  0.28585220     0.35600
H2565       H  0.27067589  0.95178327  0.28629636     0.28300
H2566       H  0.14997058  0.01853057  0.20831894     0.32600
H2567       H  0.16916480  0.93609253  0.21336346     0.35400
H2568       H  0.24736019  0.02412480  0.20000128     0.28000
H2569       H  0.26989724  0.97184548  0.29700386     0.40900
H2570       H  0.17960295  0.02220270  0.30535542     0.31000
H2571       H  0.21196641  0.03848031  0.30116685     0.38600
H2572       H  0.21126173  0.94493077  0.19956720     0.30400
H2573       H  0.15443666  0.96280738  0.28311278     0.30500
H2574       H  0.14791220  0.99679974  0.21320025     0.30800
Zr2575     Zr  0.00174737  0.99848032  0.01795630     2.17500
O2576       O  0.02730015  0.02167357  0.02356353    -0.51600
O2577       O  0.99682616  0.99846240  0.05295156    -0.74800
O2578       O  0.99035129  0.03223353  0.01779451    -0.81600
O2579       O  0.04060991  0.95818963  0.01239314    -0.83300
O2580       O  0.96167406  0.03439109  0.00163072    -0.78900
O2581       O  0.03561782  0.98851661  0.02421322    -0.90600
O2582       O  0.97766476  0.97379316  0.06093182    -0.76500
O2583       O  0.96795754  0.99411991  0.02336592    -0.86000
O2584       O  0.99874288  0.96582496  0.02634186    -0.85700
O2585       O  0.98638483  0.00540179  0.98749524    -0.72500
O2586       O  0.01367652  0.97995034  0.99052595    -0.84600
Zr2587     Zr  0.95988758  0.94983675  0.97550190     2.26400
Zr2588     Zr  0.95224967  0.00143120  0.99336781     2.06300
Zr2589     Zr  0.01005150  0.94725857  0.99931170     2.10000
Zr2590     Zr  0.96509362  0.96111308  0.03135638     1.78800
O2591       O  0.03645283  0.93668723  0.97814791    -0.93400
O2592       O  0.93704203  0.97295434  0.04963584    -0.41200
O2593       O  0.97628402  0.94191844  0.00475781    -0.77900
O2594       O  0.94838829  0.96875258  0.00254348    -0.96600
O2595       O  0.96316452  0.98216212  0.96626287    -0.89900
O2596       O  0.99363149  0.95341705  0.96967359    -0.92700
C2597       C  0.98839519  0.98789671  0.06523862     1.01100
C2598       C  0.04643419  0.97355647  0.02082277     1.14000
C2599       C  0.97615134  0.04195966  0.01051361     1.04800
O2600       O  0.92837848  0.01484172  0.01589687    -0.94900
O2601       O  0.92030252  0.99007662  0.98249567    -0.90600
O2602       O  0.92575527  0.95941700  0.97186976    -0.83700
C2603       C  0.91438669  0.97391406  0.97566716     1.11400
O2604       O  0.01906086  0.01162873  0.95412309    -0.96800
Zr2605     Zr  0.99698564  0.98571984  0.96062542     1.88900
O2606       O  0.96445562  0.94826461  0.94072222    -0.73500
O2607       O  0.94164116  0.02138878  0.96691348    -0.52700
O2608       O  0.98187340  0.00985884  0.94037133    -0.97400
O2609       O  0.02731205  0.97436223  0.94588618    -0.54600
O2610       O  0.98795931  0.96813595  0.93128781    -0.74000
C2611       C  0.97535713  0.95526357  0.92770945     0.98400
O2612       O  0.93453106  0.92606686  0.97202482    -0.62800
O2613       O  0.01826889  0.92563170  0.02522103    -0.57600
O2614       O  0.97208602  0.91683179  0.97646392    -0.94300
O2615       O  0.00266306  0.91502789  0.98885578    -0.92700
O2616       O  0.97628331  0.93250007  0.04785142    -0.93100
O2617       O  0.93967322  0.93775300  0.03501035    -0.91900
C2618       C  0.98750408  0.90755608  0.98146895     1.17200
H2619       H  0.00636450  0.96279589  0.03757478     0.33100
H2620       H  0.93500138  0.96623205  0.00541405     0.44000
H2621       H  0.99825151  0.94454305  0.95980875     0.37500
H2622       H  0.98905403  0.01830232  0.98376968     0.34000
H2623       H  0.93896067  0.96792336  0.06270102     0.25800
H2624       H  0.95315665  0.02891107  0.96364078     0.31700
H2625       H  0.97172641  0.00305478  0.93299484     0.37600
H2626       H  0.98673161  0.93683514  0.05659237     0.32100
H2627       H  0.00717156  0.91690121  0.02605144     0.31000
H2628       H  0.04418553  0.92748169  0.98578838     0.32700
H2629       H  0.02582668  0.97700473  0.93204414     0.31600
H2630       H  0.93714599  0.93288580  0.02180289     0.35600
H2631       H  0.93836197  0.91772408  0.96093518     0.28300
H2632       H  0.02307658  0.02960411  0.03481926     0.32600
H2633       H  0.01994290  0.01215472  0.93995123     0.35400
H2634       H  0.02907770  0.91748335  0.02010112     0.28000
H2635       H  0.93571269  0.91784159  0.98339387     0.40900
H2636       H  0.91738082  0.01918039  0.00780451     0.31000
H2637       H  0.93897315  0.98691553  0.05114596     0.38600
H2638       H  0.02700932  0.96023062  0.94653048     0.30400
H2639       H  0.94006042  0.01240773  0.95585199     0.30500
H2640       H  0.02683276  0.03039175  0.01254097     0.30800
Zr2641     Zr  0.99754952  0.21879206  0.21616069     2.17500
O2642       O  0.02045800  0.19386434  0.20523046    -0.51600
O2643       O  0.00156792  0.21919104  0.18061326    -0.74800
O2644       O  0.98908815  0.18574717  0.22201380    -0.81600
O2645       O  0.03538043  0.25649417  0.23034834    -0.83300
O2646       O  0.95736159  0.18328217  0.23013682    -0.78900
O2647       O  0.03127394  0.22497779  0.22305746    -0.90600
O2648       O  0.97912688  0.23933796  0.16784739    -0.76500
O2649       O  0.96464173  0.22136518  0.20608026    -0.86000
O2650       O  0.99477128  0.25068015  0.20501628    -0.85700
O2651       O  0.97875963  0.21386351  0.24508856    -0.72500
O2652       O  0.00554632  0.23934456  0.24317993    -0.84600
Zr2653     Zr  0.94910641  0.26893524  0.24900490     2.26400
Zr2654     Zr  0.94562210  0.21642372  0.23460942     2.06300
Zr2655     Zr  0.00229627  0.27117041  0.23198368     2.10000
Zr2656     Zr  0.96171723  0.25345272  0.19505001     1.78800
O2657       O  0.02102720  0.28643979  0.25759048    -0.93400
O2658       O  0.93676334  0.23836835  0.17539423    -0.41200
O2659       O  0.96913024  0.27449471  0.22147624    -0.77900
O2660       O  0.94144123  0.24805624  0.22220698    -0.96600
O2661       O  0.95281683  0.23761894  0.26122045    -0.89900
O2662       O  0.98209746  0.26702142  0.25958347    -0.92700
C2663       C  0.99352748  0.22753155  0.16615867     1.01100
C2664       C  0.04203192  0.23928782  0.22704967     1.14000
C2665       C  0.97434425  0.17602889  0.22672105     1.04800
O2666       O  0.92481798  0.20167419  0.21040608    -0.94900
O2667       O  0.91250074  0.22757143  0.24275501    -0.90600
O2668       O  0.91515158  0.25957167  0.24820864    -0.83700
C2669       C  0.90508865  0.24432056  0.24635508     1.11400
O2670       O  0.01144360  0.21197652  0.27820508    -0.96800
Zr2671     Zr  0.98589675  0.23551993  0.27118298     1.88900
O2672       O  0.94894442  0.27442572  0.28386017    -0.73500
O2673       O  0.93318591  0.19767011  0.26081939    -0.52700
O2674       O  0.97261356  0.21233993  0.29297857    -0.97400
O2675       O  0.01289719  0.24840207  0.28971844    -0.54600
O2676       O  0.97129337  0.25468572  0.29732363    -0.74000
C2677       C  0.95798025  0.26783159  0.29851250     0.98400
O2678       O  0.92227732  0.29129859  0.25575065    -0.62800
O2679       O  0.01990843  0.28819746  0.20753430    -0.57600
O2680       O  0.95661997  0.30164660  0.24099934    -0.94300
O2681       O  0.98875965  0.30388947  0.23409065    -0.92700
O2682       O  0.97184844  0.27984757  0.17536227    -0.93100
O2683       O  0.93590793  0.27678856  0.18856720    -0.91900
C2684       C  0.97168746  0.31127584  0.23702589     1.17200
H2685       H  0.00372978  0.25304649  0.19472777     0.33100
H2686       H  0.92837735  0.25006739  0.21755866     0.44000
H2687       H  0.98474189  0.27665861  0.26933062     0.37500
H2688       H  0.98134307  0.20171798  0.25095404     0.34000
H2689       H  0.94337965  0.22742094  0.16871579     0.25800
H2690       H  0.92384725  0.18886434  0.25464829     0.31700
H2691       H  0.95847428  0.21259866  0.29043929     0.37600
H2692       H  0.98589804  0.28107257  0.17799264     0.32100
H2693       H  0.01063736  0.29805733  0.20284910     0.31000
H2694       H  0.01301971  0.29754680  0.26216105     0.32700
H2695       H  0.01109628  0.24351522  0.30282565     0.31600
H2696       H  0.93536898  0.28517482  0.20021586     0.35600
H2697       H  0.92780570  0.30184268  0.26358514     0.28300
H2698       H  0.01350364  0.18525675  0.19620162     0.32600
H2699       H  0.00535041  0.19931698  0.27674739     0.35400
H2700       H  0.02976712  0.29551340  0.21480220     0.28000
H2701       H  0.91889032  0.29696623  0.24327187     0.40900
H2702       H  0.91369693  0.21071935  0.20891375     0.31000
H2703       H  0.92806268  0.23236607  0.18470411     0.38600
H2704       H  0.01006877  0.26232078  0.29102728     0.30400
H2705       H  0.94417986  0.18929439  0.26477695     0.30500
H2706       H  0.02392442  0.18600756  0.21644062     0.30800
Zr2707     Zr  0.45887346  0.76821738  0.26598425     2.17500
O2708       O  0.44298103  0.79094556  0.28831823    -0.51600
O2709       O  0.42379520  0.76104294  0.26423391    -0.74800
O2710       O  0.45798510  0.80110093  0.25431003    -0.81600
O2711       O  0.47557512  0.73510908  0.30723075    -0.83300
O2712       O  0.46862563  0.80150437  0.22336589    -0.78900
O2713       O  0.46432261  0.76510228  0.30069441    -0.90600
O2714       O  0.41785574  0.73758936  0.24208371    -0.76500
O2715       O  0.45337481  0.76071974  0.23284479    -0.86000
O2716       O  0.45397690  0.73455844  0.26457161    -0.85700
O2717       O  0.48788372  0.77714980  0.24900048    -0.72500
O2718       O  0.48830534  0.75371529  0.27777485    -0.84600
Zr2719     Zr  0.50678528  0.72060499  0.22577745     2.26400
Zr2720     Zr  0.48219912  0.76923173  0.21573021     2.06300
Zr2721     Zr  0.48341097  0.71998769  0.27615085     2.10000
Zr2722     Zr  0.44919596  0.72690512  0.23134014     1.78800
O2723       O  0.50733235  0.70899576  0.29951767    -0.93400
O2724       O  0.43044744  0.73577511  0.20309001    -0.41200
O2725       O  0.47823313  0.71232126  0.24297585    -0.77900
O2726       O  0.47721966  0.73531732  0.21376496    -0.96600
O2727       O  0.51177733  0.75432563  0.22712122    -0.89900
O2728       O  0.51222626  0.72808298  0.25900384    -0.92700
C2729       C  0.41230839  0.74987107  0.25475539     1.01100
C2730       C  0.46942969  0.75192696  0.31246779     1.14000
C2731       C  0.46191706  0.80986242  0.23876885     1.04800
O2732       O  0.45957798  0.77618741  0.18975743    -0.94900
O2733       O  0.49392207  0.75559692  0.18468643    -0.90600
O2734       O  0.50665523  0.72603896  0.19074388    -0.83700
C2735       C  0.50143632  0.73930198  0.17906083     1.11400
O2736       O  0.51982464  0.79016524  0.28097911    -0.96800
Zr2737     Zr  0.51678327  0.76175290  0.26038170     1.88900
O2738       O  0.54203890  0.72186760  0.23242326    -0.73500
O2739       O  0.50576407  0.79262053  0.20594635    -0.52700
O2740       O  0.53466996  0.78813927  0.24710206    -0.97400
O2741       O  0.53164723  0.75397107  0.29109965    -0.54600
O2742       O  0.54786970  0.74800070  0.25131209    -0.74000
C2743       C  0.55352753  0.73318476  0.24160614     0.98400
O2744       O  0.52300662  0.69454015  0.20789526    -0.62800
O2745       O  0.45785006  0.70104499  0.29001087    -0.57600
O2746       O  0.49947477  0.68778706  0.23501674    -0.94300
O2747       O  0.49119453  0.68693015  0.26660942    -0.92700
O2748       O  0.43692830  0.69737814  0.24431943    -0.93100
O2749       O  0.44604493  0.70128394  0.20736351    -0.91900
C2750       C  0.49515222  0.67877316  0.25033098     1.17200
H2751       H  0.44316410  0.73087004  0.27237011     0.33100
H2752       H  0.47394477  0.73110812  0.20092448     0.44000
H2753       H  0.52323916  0.72104886  0.26408893     0.37500
H2754       H  0.49080728  0.79052572  0.25067868     0.34000
H2755       H  0.41750854  0.73019160  0.20493418     0.25800
H2756       H  0.51839797  0.78561543  0.20587998     0.31700
H2757       H  0.54159760  0.78255729  0.23579678     0.37600
H2758       H  0.42420565  0.70094055  0.25008717     0.32100
H2759       H  0.45536865  0.69073022  0.28040448     0.31000
H2760       H  0.51656700  0.70063808  0.29217686     0.32700
H2761       H  0.54120808  0.74354900  0.28816043     0.31600
H2762       H  0.45958244  0.69759385  0.20399766     0.35600
H2763       H  0.51270133  0.68873486  0.19990445     0.28300
H2764       H  0.43241993  0.79723759  0.28096568     0.32600
H2765       H  0.50629796  0.79399172  0.28428447     0.35400
H2766       H  0.46417032  0.69445179  0.30087281     0.28000
H2767       H  0.53186427  0.70059056  0.19874762     0.40900
H2768       H  0.44772284  0.78134244  0.19619314     0.31000
H2769       H  0.42815976  0.74977126  0.20453288     0.38600
H2770       H  0.52130510  0.74767891  0.29836036     0.30400
H2771       H  0.50287982  0.79475498  0.19222171     0.30500
H2772       H  0.45249117  0.80111183  0.29093460     0.30800
Zr2773     Zr  0.01531219  0.50752430  0.50265659     2.17500
O2774       O  0.03060768  0.53000544  0.52503918    -0.51600
O2775       O  0.05058455  0.49907131  0.50175563    -0.74800
O2776       O  0.01043321  0.49778516  0.53603030    -0.81600
O2777       O  0.00393197  0.54908092  0.46753890    -0.83300
O2778       O  0.99670112  0.46840120  0.53653124    -0.78900
O2779       O  0.01197516  0.54243360  0.49842868    -0.90600
O2780       O  0.05803705  0.48192416  0.47461954    -0.76500
O2781       O  0.01977965  0.47420312  0.49563588    -0.86000
O2782       O  0.02368701  0.50553162  0.46934718    -0.85700
O2783       O  0.98424641  0.49332533  0.50911259    -0.72500
O2784       O  0.98849365  0.52091670  0.48493661    -0.84600
Zr2785     Zr  0.97080644  0.47048755  0.45123164     2.26400
Zr2786     Zr  0.98920544  0.45976550  0.50235183     2.06300
Zr2787     Zr  0.99666719  0.51862419  0.45170897     2.10000
Zr2788     Zr  0.02747702  0.47212444  0.46215686     1.78800
O2789       O  0.97490326  0.54372633  0.44008430    -0.93400
O2790       O  0.04371033  0.44337355  0.47403249    -0.41200
O2791       O  0.00099181  0.48528099  0.44438503    -0.77900
O2792       O  0.99785803  0.45697982  0.46885264    -0.96600
O2793       O  0.96219610  0.47286714  0.48450106    -0.89900
O2794       O  0.96619375  0.50388260  0.45771820    -0.92700
C2795       C  0.06276617  0.49051315  0.49019865     1.01100
C2796       C  0.00816908  0.55423317  0.48484709     1.14000
C2797       C  0.00345873  0.48355026  0.54505045     1.04800
O2798       O  0.01174136  0.43480672  0.51289826    -0.94900
O2799       O  0.97777237  0.42987542  0.48691940    -0.90600
O2800       O  0.96855122  0.43598414  0.45622208    -0.83700
C2801       C  0.97181929  0.42446673  0.47005486     1.11400
O2802       O  0.95582715  0.53023322  0.51680938    -0.96800
Zr2803     Zr  0.95815671  0.50639987  0.49085886     1.88900
O2804       O  0.93536347  0.47642135  0.45203743    -0.73500
O2805       O  0.96267725  0.44830846  0.52180090    -0.52700
O2806       O  0.93731185  0.49673913  0.51703183    -0.97400
O2807       O  0.94297939  0.53557821  0.47877721    -0.54600
O2808       O  0.92813129  0.49721584  0.47638072    -0.74000
C2809       C  0.92314183  0.48645954  0.46224656     0.98400
O2810       O  0.96125064  0.45274359  0.42240348    -0.62800
O2811       O  0.02482280  0.52946350  0.43414157    -0.57600
O2812       O  0.97720022  0.48069526  0.41829569    -0.94300
O2813       O  0.98846980  0.51105479  0.41819948    -0.92700
O2814       O  0.04517153  0.48169237  0.43379436    -0.93100
O2815       O  0.03043749  0.44681586  0.43762922    -0.91900
C2816       C  0.98257683  0.49577416  0.40956450     1.17200
H2817       H  0.03537781  0.51243202  0.46680709     0.33100
H2818       H  0.00103380  0.44396062  0.46504676     0.44000
H2819       H  0.95609860  0.50928338  0.44973729     0.37500
H2820       H  0.97943702  0.49581488  0.52188370     0.34000
H2821       H  0.05661501  0.44303677  0.46777912     0.25800
H2822       H  0.96881643  0.43868616  0.53023436     0.31700
H2823       H  0.92529200  0.50462368  0.51569503     0.37600
H2824       H  0.03504851  0.48634301  0.42482157     0.32100
H2825       H  0.02339958  0.52414172  0.42094208     0.31000
H2826       H  0.98238813  0.55006628  0.42999114     0.32700
H2827       H  0.95198115  0.54595241  0.48231858     0.31600
H2828       H  0.01741516  0.44624896  0.43162634     0.35600
H2829       H  0.97236890  0.44396575  0.41948908     0.28300
H2830       H  0.04148693  0.52273552  0.53091368     0.32600
H2831       H  0.96949736  0.53239333  0.52050217     0.35400
H2832       H  0.02259652  0.54342197  0.43283698     0.28000
H2833       H  0.95060824  0.44441751  0.42639045     0.40900
H2834       H  0.01547020  0.42766899  0.50098539     0.31000
H2835       H  0.04650846  0.44627381  0.48772517     0.38600
H2836       H  0.93143336  0.53794120  0.48700842     0.30400
H2837       H  0.95917479  0.45921764  0.53052260     0.30500
H2838       H  0.02121338  0.53231687  0.53562515     0.30800
Zr2839     Zr  0.50897072  0.51562622  0.03530004     2.17500
O2840       O  0.51825216  0.53905163  0.05995139    -0.51600
O2841       O  0.54434439  0.51062882  0.03290202    -0.74800
O2842       O  0.51184826  0.50189645  0.06731876    -0.81600
O2843       O  0.49486196  0.55804664  0.00183536    -0.83300
O2844       O  0.49799324  0.47265021  0.06823590    -0.78900
O2845       O  0.50808170  0.55049141  0.03064145    -0.90600
O2846       O  0.55187088  0.48832085  0.00989147    -0.76500
O2847       O  0.51477374  0.48255385  0.02803088    -0.86000
O2848       O  0.51633680  0.51422719  0.00185224    -0.85700
O2849       O  0.47921863  0.50002875  0.04356795    -0.72500
O2850       O  0.48061511  0.52807284  0.01937993    -0.84600
Zr2851     Zr  0.46435558  0.47629523  0.98600742     2.26400
Zr2852     Zr  0.48528968  0.46672387  0.03584893     2.06300
Zr2853     Zr  0.48786385  0.52652985  0.98582742     2.10000
Zr2854     Zr  0.52156059  0.48092768  0.99452721     1.78800
O2855       O  0.46316016  0.54851588  0.97353607    -0.93400
O2856       O  0.53858937  0.45065207  0.00020599    -0.41200
O2857       O  0.49346896  0.49311219  0.97864532    -0.77900
O2858       O  0.49285531  0.46388522  0.00221463    -0.96600
O2859       O  0.45684343  0.47836497  0.01936124    -0.89900
O2860       O  0.45851776  0.50977474  0.99270123    -0.92700
C2861       C  0.55661357  0.49996811  0.02338064     1.01100
C2862       C  0.50256548  0.56291053  0.01817039     1.14000
C2863       C  0.50715830  0.48664839  0.07608406     1.04800
O2864       O  0.50836879  0.44112651  0.04343247    -0.94900
O2865       O  0.47245021  0.43642933  0.02396055    -0.90600
O2866       O  0.46293289  0.44164004  0.99319060    -0.83700
C2867       C  0.46596050  0.43059091  0.00762697     1.11400
O2868       O  0.44524577  0.53286102  0.05376619    -0.96800
Zr2869     Zr  0.45132036  0.51158375  0.02614820     1.88900
O2870       O  0.42912056  0.48400283  0.98432202    -0.73500
O2871       O  0.46080317  0.45672669  0.05852140    -0.52700
O2872       O  0.43247641  0.49623770  0.05082357    -0.97400
O2873       O  0.43691109  0.54297630  0.01980455    -0.54600
O2874       O  0.42131352  0.50383055  0.00943608    -0.74000
C2875       C  0.41671164  0.49399855  0.99436784     0.98400
O2876       O  0.45019662  0.45466601  0.96215228    -0.62800
O2877       O  0.51298174  0.54046056  0.96619935    -0.57600
O2878       O  0.47313094  0.48457208  0.95313756    -0.94300
O2879       O  0.48277737  0.51552609  0.95229341    -0.92700
O2880       O  0.54093128  0.49535332  0.96966970    -0.93100
O2881       O  0.52382198  0.45970166  0.96638695    -0.91900
C2882       C  0.47843622  0.49941567  0.94401706     1.17200
H2883       H  0.52761914  0.52164151  0.99899262     0.33100
H2884       H  0.49589969  0.45076844  0.99852476     0.44000
H2885       H  0.44809912  0.51497028  0.98498218     0.37500
H2886       H  0.47635404  0.50176953  0.05706672     0.34000
H2887       H  0.55186910  0.45239414  0.99519479     0.25800
H2888       H  0.44895469  0.45479349  0.05070604     0.31700
H2889       H  0.41942505  0.50238999  0.05014259     0.37600
H2890       H  0.53161997  0.50352765  0.96255044     0.32100
H2891       H  0.50595842  0.54981440  0.95811779     0.31000
H2892       H  0.47047905  0.55957347  0.96894462     0.32700
H2893       H  0.42277878  0.54086914  0.01875345     0.31600
H2894       H  0.51019530  0.45799097  0.96226682     0.35600
H2895       H  0.44438533  0.46300574  0.95227961     0.28300
H2896       H  0.53044510  0.53396256  0.06561657     0.32600
H2897       H  0.45752803  0.53263569  0.06116283     0.35400
H2898       H  0.52074039  0.54841267  0.97516192     0.28000
H2899       H  0.46134966  0.44810951  0.95573103     0.40900
H2900       H  0.51167541  0.43499013  0.03088298     0.31000
H2901       H  0.54025475  0.45028753  0.01431379     0.38600
H2902       H  0.44102494  0.54584767  0.00658684     0.30400
H2903       H  0.46500974  0.44365482  0.06215588     0.30500
H2904       H  0.50842095  0.53829113  0.07025312     0.30800
Zr2905     Zr  0.45408337  0.99347817  0.45157014     2.17500
O2906       O  0.44813937  0.96801637  0.42783153    -0.51600
O2907       O  0.41832307  0.99296222  0.45328416    -0.74800
O2908       O  0.45875638  0.96121800  0.46428122    -0.81600
O2909       O  0.45660942  0.03059373  0.41093293    -0.83300
O2910       O  0.47195381  0.96130617  0.49419835    -0.78900
O2911       O  0.45269672  0.99909876  0.41714847    -0.90600
O2912       O  0.40899152  0.01614580  0.47476695    -0.76500
O2913       O  0.44796233  0.99913720  0.48494824    -0.86000
O2914       O  0.44218698  0.02566002  0.45402549    -0.85700
O2915       O  0.48518004  0.98912537  0.46718720    -0.72500
O2916       O  0.47936840  0.01290436  0.43888249    -0.84600
Zr2917     Zr  0.49155006  0.04690447  0.49209490     2.26400
Zr2918     Zr  0.47881810  0.99497017  0.50078251     2.06300
Zr2919     Zr  0.46723256  0.04514046  0.44172886     2.10000
Zr2920     Zr  0.43676755  0.03163887  0.48740066     1.78800
O2921       O  0.48927333  0.05771447  0.41805700    -0.93400
O2922       O  0.42061764  0.01939876  0.51559617    -0.41200
O2923       O  0.46146078  0.05121817  0.47529000    -0.77900
O2924       O  0.46629519  0.02714175  0.50437743    -0.96600
O2925       O  0.50388040  0.01489669  0.48905120    -0.89900
O2926       O  0.49784158  0.04200707  0.45849765    -0.92700
C2927       C  0.40528346  0.00275331  0.46265251     1.01100
C2928       C  0.45289445  0.01325715  0.40564043     1.14000
C2929       C  0.46522781  0.95262476  0.47926402     1.04800
O2930       O  0.46032998  0.98126550  0.52670730    -0.94900
O2931       O  0.48831664  0.00955114  0.53165522    -0.90600
O2932       O  0.49388032  0.04105685  0.52679545    -0.83700
C2933       C  0.49238549  0.02656164  0.53781709     1.11400
O2934       O  0.51582544  0.98669901  0.42950958    -0.96800
Zr2935     Zr  0.50973907  0.00985334  0.45557875     1.88900
O2936       O  0.52720673  0.04750121  0.49033218    -0.73500
O2937       O  0.50843535  0.97709363  0.50845946    -0.52700
O2938       O  0.53236506  0.98351761  0.46200298    -0.97400
O2939       O  0.52516475  0.02698660  0.42981231    -0.54600
O2940       O  0.53830890  0.02327155  0.47080554    -0.74000
C2941       C  0.54100957  0.03702521  0.48293040     0.98400
O2942       O  0.50061686  0.07393071  0.51259842    -0.62800
O2943       O  0.43917779  0.06348319  0.43027682    -0.57600
O2944       O  0.47923612  0.07856984  0.48204185    -0.94300
O2945       O  0.46951463  0.07881696  0.45082035    -0.92700
O2946       O  0.41497375  0.05742400  0.47737860    -0.93100
O2947       O  0.43118536  0.05693207  0.51152022    -0.91900
C2948       C  0.47293910  0.08719052  0.46701528     1.17200
H2949       H  0.43051801  0.02751566  0.44655791     0.33100
H2950       H  0.46255240  0.03022571  0.51741113     0.44000
H2951       H  0.50713841  0.05108408  0.45403804     0.37500
H2952       H  0.49036862  0.97631446  0.46504581     0.34000
H2953       H  0.40773822  0.02595846  0.51583083     0.25800
H2954       H  0.51777602  0.98690643  0.51271438     0.31700
H2955       H  0.52807840  0.97844102  0.47441664     0.37600
H2956       H  0.42284752  0.06508440  0.46861552     0.32100
H2957       H  0.44394774  0.07018972  0.41888589     0.31000
H2958       H  0.48079763  0.06526458  0.40942803     0.32700
H2959       H  0.51648151  0.02521767  0.41860170     0.31600
H2960       H  0.44429429  0.06163613  0.51467364     0.35600
H2961       H  0.50644540  0.08334538  0.50401119     0.28300
H2962       H  0.43818636  0.95980825  0.43349209     0.32600
H2963       H  0.50543952  0.97720179  0.43070420     0.35400
H2964       H  0.43002692  0.05397136  0.42499532     0.28000
H2965       H  0.48831617  0.08001449  0.51718629     0.40900
H2966       H  0.44687002  0.98066710  0.52176362     0.31000
H2967       H  0.41776772  0.00590052  0.51222554     0.38600
H2968       H  0.53698567  0.01928894  0.42658604     0.30400
H2969       H  0.50525755  0.97019727  0.52028196     0.30500
H2970       H  0.46016503  0.96001538  0.42733003     0.30800
Zr2971     Zr  0.68916736  0.23679210  0.52161829     2.17500
O2972       O  0.66734130  0.22474714  0.54592715    -0.51600
O2973       O  0.68764130  0.20208491  0.51583143    -0.74800
O2974       O  0.65531949  0.24098295  0.51255557    -0.81600
O2975       O  0.72788149  0.24780134  0.56129470    -0.83300
O2976       O  0.65210832  0.25299466  0.48262710    -0.78900
O2977       O  0.69665630  0.23929867  0.55573860    -0.90600
O2978       O  0.70964400  0.19339823  0.49301450    -0.76500
O2979       O  0.69337663  0.23066745  0.48818276    -0.86000
O2980       O  0.72254628  0.22763188  0.51831450    -0.85700
O2981       O  0.68082199  0.26681838  0.50687781    -0.72500
O2982       O  0.70760455  0.26322168  0.53362425    -0.84600
Zr2983     Zr  0.73705452  0.27826722  0.47958998     2.26400
Zr2984     Zr  0.68525806  0.26039249  0.47313262     2.06300
Zr2985     Zr  0.74101549  0.25463370  0.52936573     2.10000
Zr2986     Zr  0.72684017  0.22206317  0.48475724     1.78800
O2987       O  0.75519897  0.27810255  0.55132500    -0.93400
O2988       O  0.71884723  0.20610034  0.45441894    -0.41200
O2989       O  0.74513998  0.24890882  0.49559781    -0.77900
O2990       O  0.71873666  0.25093960  0.46837989    -0.96600
O2991       O  0.70381896  0.28714161  0.48441167    -0.89900
O2992       O  0.73357492  0.28425830  0.51346672    -0.92700
C2993       C  0.69603588  0.18950333  0.50478767     1.01100
C2994       C  0.71092973  0.24299077  0.56703924     1.14000
C2995       C  0.64505183  0.24672415  0.49830260     1.04800
O2996       O  0.67246367  0.23678251  0.45049892    -0.94900
O2997       O  0.69566253  0.27056943  0.44152232    -0.90600
O2998       O  0.72730776  0.27879140  0.44520648    -0.83700
C2999       C  0.71200947  0.27584257  0.43481912     1.11400
O3000       O  0.67413944  0.29774264  0.54149777    -0.96800
Zr3001     Zr  0.70011736  0.29249428  0.51819406     1.88900
O3002       O  0.73386510  0.31357305  0.48366765    -0.73500
O3003       O  0.66360363  0.28610245  0.46262470    -0.52700
O3004       O  0.67374719  0.31359750  0.50772752    -0.97400
O3005       O  0.71214903  0.30580014  0.54849261    -0.54600
O3006       O  0.71324910  0.32181647  0.50802917    -0.74000
C3007       C  0.72478922  0.32595350  0.49457784     0.98400
O3008       O  0.76277005  0.29093377  0.45970767    -0.62800
O3009       O  0.76126426  0.22901151  0.54242663    -0.57600
O3010       O  0.77143145  0.26996599  0.48739069    -0.94300
O3011       O  0.77407821  0.25828177  0.51763247    -0.92700
O3012       O  0.75182821  0.20130375  0.49851195    -0.93100
O3013       O  0.75393263  0.21854159  0.46240159    -0.91900
C3014       C  0.78145670  0.26333505  0.50162189     1.17200
H3015       H  0.72552802  0.21628990  0.52555773     0.33100
H3016       H  0.72129662  0.24738490  0.45516666     0.44000
H3017       H  0.74199617  0.29432807  0.51782432     0.37500
H3018       H  0.66794538  0.27168442  0.50981429     0.34000
H3019       H  0.72460169  0.19304862  0.45539150     0.25800
H3020       H  0.67224738  0.29661014  0.45907069     0.31700
H3021       H  0.67599157  0.31525414  0.49382921     0.37600
H3022       H  0.76385283  0.20879752  0.49806848     0.32100
H3023       H  0.75214824  0.22004158  0.54826017     0.31000
H3024       H  0.76483255  0.27065139  0.55882286     0.32700
H3025       H  0.72552328  0.30984633  0.54574211     0.31600
H3026       H  0.75587335  0.23159455  0.45756674     0.35600
H3027       H  0.76504231  0.28119775  0.44936280     0.28300
H3028       H  0.65858953  0.21595422  0.53896654     0.32600
H3029       H  0.67498798  0.28648736  0.54988325     0.35400
H3030       H  0.76652807  0.22194876  0.53105565     0.28000
H3031       H  0.75684426  0.30205433  0.45314791     0.40900
H3032       H  0.68368691  0.23286069  0.44236647     0.31000
H3033       H  0.70466245  0.20419923  0.45502669     0.38600
H3034       H  0.71387875  0.29463467  0.55689164     0.30400
H3035       H  0.65820109  0.28136239  0.45026663     0.30500
H3036       H  0.65886850  0.23578345  0.54980785     0.30800
Zr3037     Zr  0.75557096  0.97632160  0.76023926     2.17500
O3038       O  0.77891720  0.96654383  0.78459674    -0.51600
O3039       O  0.75376555  0.94105449  0.75637106    -0.74800
O3040       O  0.74167491  0.97706838  0.79295210    -0.81600
O3041       O  0.79613426  0.99052457  0.72488812    -0.83300
O3042       O  0.70966074  0.98591623  0.79288329    -0.78900
O3043       O  0.79101781  0.98133133  0.75560692    -0.90600
O3044       O  0.73081582  0.93283432  0.73454522    -0.76500
O3045       O  0.72273919  0.96880765  0.75258300    -0.86000
O3046       O  0.75510544  0.96931694  0.72652298    -0.85700
O3047       O  0.73632575  0.00454545  0.76862761    -0.72500
O3048       O  0.76581567  0.00464366  0.74443686    -0.84600
Zr3049     Zr  0.71240111  0.01943445  0.71175722     2.26400
Zr3050     Zr  0.70344415  0.99696207  0.76043088     2.06300
Zr3051     Zr  0.76442326  0.99791699  0.71071624     2.10000
Zr3052     Zr  0.72227258  0.96236372  0.71884247     1.78800
O3053       O  0.78781521  0.02150355  0.70107827    -0.93400
O3054       O  0.69137859  0.94659382  0.72326775    -0.41200
O3055       O  0.73136139  0.99104013  0.70294709    -0.77900
O3056       O  0.70251364  0.99000456  0.72656800    -0.96600
O3057       O  0.71336682  0.02587577  0.74544675    -0.89900
O3058       O  0.74546814  0.02613254  0.71894721    -0.92700
C3059       C  0.74379379  0.92848708  0.74694171     1.01100
C3060       C  0.80234186  0.98571517  0.74159991     1.14000
C3061       C  0.72529857  0.98061585  0.80145978     1.04800
O3062       O  0.67934708  0.97329577  0.76817684    -0.94900
O3063       O  0.67173434  0.00641090  0.74776695    -0.90600
O3064       O  0.67695585  0.01721364  0.71760511    -0.83700
C3065       C  0.66567916  0.01253827  0.73150814     1.11400
O3066       O  0.76804645  0.03511087  0.78032144    -0.96800
Zr3067     Zr  0.74652829  0.03234234  0.75267346     1.88900
O3068       O  0.71552102  0.05508628  0.71518827    -0.73500
O3069       O  0.69117569  0.02210933  0.78222977    -0.52700
O3070       O  0.73072420  0.04898448  0.77966867    -0.97400
O3071       O  0.77543671  0.05031346  0.74530886    -0.54600
O3072       O  0.73542743  0.06234538  0.74019191    -0.74000
C3073       C  0.72426574  0.06720161  0.72641591     0.98400
O3074       O  0.69006259  0.03284818  0.68813242    -0.62800
O3075       O  0.77656176  0.97293691  0.68857476    -0.57600
O3076       O  0.72449288  0.01549247  0.67858015    -0.94300
O3077       O  0.75674489  0.00773735  0.67819014    -0.92700
O3078       O  0.74131559  0.94260289  0.69626383    -0.93100
O3079       O  0.70495580  0.95655555  0.68882243    -0.91900
C3080       C  0.74077537  0.01236052  0.66982733     1.17200
H3081       H  0.76379416  0.95869665  0.72336215     0.33100
H3082       H  0.68981399  0.98602923  0.72249294     0.44000
H3083       H  0.74988788  0.03687753  0.71175078     0.37500
H3084       H  0.73737988  0.00836203  0.78197765     0.34000
H3085       H  0.69421346  0.93280837  0.72078235     0.25800
H3086       H  0.68086254  0.01597026  0.78966928     0.31700
H3087       H  0.73487698  0.06243127  0.77890658     0.37600
H3088       H  0.74369136  0.95096928  0.68525773     0.32100
H3089       H  0.78497527  0.97965986  0.67951329     0.31000
H3090       H  0.79698962  0.01430494  0.69254984     0.32700
H3091       H  0.77380391  0.05413353  0.73178964     0.31600
H3092       H  0.69444635  0.96643559  0.68873058     0.35600
H3093       H  0.69777410  0.04176560  0.68050592     0.28300
H3094       H  0.77284383  0.95592657  0.79137911     0.32600
H3095       H  0.77336776  0.02198007  0.78205564     0.35400
H3096       H  0.78567831  0.96503125  0.69620780     0.28000
H3097       H  0.68717250  0.02207388  0.67918868     0.40900
H3098       H  0.67304868  0.97830461  0.78008089     0.31000
H3099       H  0.68888187  0.94760856  0.73724807     0.38600
H3100       H  0.78610923  0.04060058  0.74489033     0.30400
H3101       H  0.70178137  0.02417325  0.79160777     0.30500
H3102       H  0.77924353  0.97726633  0.79412880     0.30800
Zr3103     Zr  0.01737654  0.71371251  0.71694094     2.17500
O3104       O  0.03904468  0.69239095  0.69834850    -0.51600
O3105       O  0.01729695  0.72126167  0.68237115    -0.74800
O3106       O  0.00683418  0.68058319  0.71612350    -0.81600
O3107       O  0.05749029  0.74350477  0.74016082    -0.83300
O3108       O  0.97715134  0.67726507  0.72960141    -0.78900
O3109       O  0.05181192  0.71487496  0.72544398    -0.90600
O3110       O  0.99322436  0.74291405  0.67654703    -0.76500
O3111       O  0.98372338  0.71988177  0.71131586    -0.86000
O3112       O  0.01530106  0.74748883  0.71258762    -0.85700
O3113       O  0.00123692  0.70381886  0.74598915    -0.72500
O3114       O  0.02806144  0.72833063  0.74638006    -0.84600
Zr3115     Zr  0.97603042  0.75896159  0.76520560     2.26400
Zr3116     Zr  0.96743014  0.71022942  0.73999393     2.06300
Zr3117     Zr  0.02656350  0.76176267  0.74200980     2.10000
Zr3118     Zr  0.98147295  0.75381144  0.70778156     1.78800
O3119       O  0.04911024  0.77675905  0.76444534    -0.93400
O3120       O  0.95180495  0.74596720  0.69047090    -0.41200
O3121       O  0.99272867  0.76866726  0.73683391    -0.77900
O3122       O  0.96416990  0.74427406  0.73582798    -0.96600
O3123       O  0.97847595  0.72518569  0.76953370    -0.89900
O3124       O  0.00983416  0.75297061  0.77057168    -0.92700
C3125       C  0.00710168  0.73165377  0.67090803     1.01100
C3126       C  0.06316230  0.72673330  0.73395067     1.14000
C3127       C  0.99283428  0.67027402  0.72190611     1.04800
O3128       O  0.94492015  0.70471678  0.71355258    -0.94900
O3129       O  0.93666299  0.72185805  0.75417118    -0.90600
O3130       O  0.94183329  0.75030571  0.76973883    -0.83700
C3131       C  0.93076368  0.73657265  0.76422821     1.11400
O3132       O  0.03392787  0.69151954  0.77717354    -0.96800
Zr3133     Zr  0.01215820  0.71932014  0.77491666     1.88900
O3134       O  0.98412567  0.75942688  0.79957756    -0.73500
O3135       O  0.95167043  0.68644722  0.75938755    -0.52700
O3136       O  0.99776164  0.69415801  0.79350996    -0.97400
O3137       O  0.04367777  0.72614697  0.78918930    -0.54600
O3138       O  0.00423386  0.73416349  0.80563327    -0.74000
C3139       C  0.99425571  0.74899177  0.81098299     0.98400
O3140       O  0.95154856  0.78140063  0.77821467    -0.62800
O3141       O  0.04232485  0.77967374  0.71697799    -0.57600
O3142       O  0.98500435  0.79242162  0.76135936    -0.94300
O3143       O  0.01619516  0.79418557  0.75083455    -0.92700
O3144       O  0.99409169  0.78126122  0.69120917    -0.93100
O3145       O  0.95901761  0.78117676  0.70744954    -0.91900
C3146       C  0.00012746  0.80179240  0.75672535     1.17200
H3147       H  0.02303759  0.75153764  0.70192920     0.33100
H3148       H  0.95076838  0.74798740  0.73380901     0.44000
H3149       H  0.01499725  0.76030927  0.78122493     0.37500
H3150       H  0.00381879  0.69059660  0.74896968     0.34000
H3151       H  0.95521292  0.73438471  0.68264615     0.25800
H3152       H  0.94400636  0.67870701  0.75014770     0.31700
H3153       H  0.99110783  0.68596785  0.78388978     0.37600
H3154       H  0.00128540  0.78848393  0.70121775     0.32100
H3155       H  0.04913461  0.79003424  0.72399636     0.31000
H3156       H  0.05099504  0.76737383  0.77475779     0.32700
H3157       H  0.04223962  0.73920173  0.79489194     0.31600
H3158       H  0.95676463  0.78441150  0.72118896     0.35600
H3159       H  0.95836936  0.78934518  0.78793974     0.28300
H3160       H  0.03099934  0.68684373  0.68791559     0.32600
H3161       H  0.03625797  0.68725187  0.76371019     0.35400
H3162       H  0.05287931  0.77103953  0.71213032     0.28000
H3163       H  0.94829826  0.79022607  0.76769134     0.40900
H3164       H  0.94312051  0.69068733  0.71311662     0.31000
H3165       H  0.94280370  0.74138225  0.70034533     0.38600
H3166       H  0.05252534  0.72764415  0.77815877     0.30400
H3167       H  0.96220876  0.67768805  0.76368063     0.30500
H3168       H  0.04194911  0.68148590  0.70678937     0.30800
C3169       C  0.18724242  0.12418057  0.00984069    -0.12500
C3170       C  0.20218609  0.11001148  0.00942124     0.04500
C3171       C  0.22146171  0.11654636  0.00774714    -0.07800
C3172       C  0.22494804  0.13637746  0.00597926    -0.08600
C3173       C  0.20975531  0.15027958  0.00624597    -0.03100
C3174       C  0.19069959  0.14376909  0.00852475     0.03700
N3175       N  0.17427146  0.15654602  0.00840198     0.66200
H3176       H  0.17224806  0.12014566  0.01118989     0.15100
H3177       H  0.23978245  0.14092414  0.00427596     0.14800
N3178       N  0.23774801  0.10363192  0.00720868     0.73900
O3179       O  0.16545745  0.15896930  0.99272598    -0.39500
O3180       O  0.16507632  0.15946621  0.02387582    -0.39500
O3181       O  0.24561857  0.09992488  0.99116924    -0.40200
O3182       O  0.24794650  0.10217225  0.02218758    -0.40200
C3183       C  0.20516294  0.02526896  0.13427627    -0.12500
C3184       C  0.19366585  0.01256935  0.12358950     0.04500
C3185       C  0.18805806  0.99547061  0.13224755    -0.07800
C3186       C  0.19194001  0.99266239  0.15195928    -0.08600
C3187       C  0.20216926  0.00638764  0.16293981    -0.03100
C3188       C  0.20949687  0.02236990  0.15353032     0.03700
N3189       N  0.22099352  0.03633741  0.16319491     0.66200
H3190       H  0.21051317  0.03811507  0.12781810     0.15100
H3191       H  0.18683799  0.97988006  0.15872145     0.14800
N3192       N  0.17824217  0.98113346  0.12127318     0.73900
O3193       O  0.23910332  0.03553491  0.16052918    -0.39500
O3194       O  0.21318440  0.05242540  0.16716491    -0.39500
O3195       O  0.18788514  0.97090018  0.10939720    -0.40200
O3196       O  0.16006399  0.98248724  0.11936812    -0.40200
C3197       C  0.09505968  0.98166952  0.04606766    -0.12500
C3198       C  0.10799105  0.97981712  0.03051528     0.04500
C3199       C  0.10046326  0.97372205  0.01248658    -0.07800
C3200       C  0.08052937  0.97077158  0.01024120    -0.08600
C3201       C  0.06748002  0.97444039  0.02531367    -0.03100
C3202       C  0.07499450  0.97943067  0.04358939     0.03700
N3203       N  0.06268448  0.98243151  0.05986593     0.66200
H3204       H  0.10028156  0.98644916  0.06002165     0.15100
H3205       H  0.07507296  0.96663408  0.99617045     0.14800
N3206       N  0.11251329  0.97113124  0.99595542     0.73900
O3207       O  0.06159014  0.96916898  0.07180774    -0.39500
O3208       O  0.05911587  0.99941496  0.06553764    -0.39500
O3209       O  0.11681520  0.95423522  0.99048808    -0.40200
O3210       O  0.11248947  0.98418149  0.98370775    -0.40200
C3211       C  0.08222165  0.09557294  0.97390921    -0.12500
C3212       C  0.08906610  0.11430610  0.97558650     0.04500
C3213       C  0.10908029  0.11710700  0.97238537    -0.07800
C3214       C  0.12190011  0.10147120  0.97360345    -0.08600
C3215       C  0.11495601  0.08366125  0.97888470    -0.03100
C3216       C  0.09508651  0.08004428  0.97591310     0.03700
N3217       N  0.08721102  0.06148066  0.97797371     0.66200
H3218       H  0.06676502  0.09303592  0.97464176     0.15100
H3219       H  0.13736283  0.10409239  0.97411675     0.14800
N3220       N  0.11714447  0.13565516  0.97097835     0.73900
O3221       O  0.07947746  0.05751760  0.99376467    -0.39500
O3222       O  0.08180327  0.05261717  0.96298260    -0.39500
O3223       O  0.12605605  0.14241647  0.98535102    -0.40200
O3224       O  0.12177673  0.14118734  0.95451203    -0.40200
C3225       C  0.12361624  0.22274005  0.97898617    -0.12500
C3226       C  0.13600157  0.23061874  0.99271585     0.04500
C3227       C  0.12760641  0.23939681  0.00940252    -0.07800
C3228       C  0.10799000  0.23592437  0.01394547    -0.08600
C3229       C  0.09574395  0.22636209  0.00088580    -0.03100
C3230       C  0.10364080  0.22131825  0.98247387     0.03700
N3231       N  0.09187388  0.21488332  0.96684167     0.66200
H3232       H  0.12950057  0.21741837  0.96542085     0.15100
H3233       H  0.10214824  0.24109154  0.02756648     0.14800
N3234       N  0.13791407  0.25379507  0.02017803     0.73900
O3235       O  0.09332171  0.19751857  0.96162104    -0.39500
O3236       O  0.08693517  0.22697133  0.95444835    -0.39500
O3237       O  0.14933293  0.26447196  0.01142839    -0.40200
O3238       O  0.13176931  0.25944309  0.03643001    -0.40200
C3239       C  0.98415281  0.07069356  0.99225977    -0.12500
C3240       C  0.97829581  0.06318879  0.00976769     0.04500
C3241       C  0.97761896  0.07567674  0.02602212    -0.07800
C3242       C  0.98399074  0.09464756  0.02471664    -0.08600
C3243       C  0.99154085  0.10162267  0.00758591    -0.03100
C3244       C  0.99107168  0.08944969  0.99106690     0.03700
N3245       N  0.99859355  0.09525379  0.97310561     0.66200
H3246       H  0.98479854  0.06141386  0.97957935     0.15100
H3247       H  0.98449241  0.10351111  0.03768241     0.14800
N3248       N  0.97122817  0.06941784  0.04422027     0.73900
O3249       O  0.01562309  0.08991350  0.96861312    -0.39500
O3250       O  0.98668618  0.09894712  0.95984012    -0.39500
O3251       O  0.98383369  0.06713096  0.05713316    -0.40200
O3252       O  0.95401408  0.07350204  0.04921290    -0.40200
C3253       C  0.02734711  0.21836658  0.12266682    -0.12500
C3254       C  0.01417959  0.21634287  0.10751728     0.04500
C3255       C  0.99415338  0.21839994  0.11185762    -0.07800
C3256       C  0.98788314  0.22243772  0.13079623    -0.08600
C3257       C  0.00105983  0.22364614  0.14612942    -0.03100
C3258       C  0.02100193  0.22179792  0.14165399     0.03700
N3259       N  0.03527480  0.22279341  0.15620069     0.66200
H3260       H  0.04272771  0.21606460  0.11997313     0.15100
H3261       H  0.97244539  0.22384530  0.13360404     0.14800
N3262       N  0.97975196  0.21569764  0.09741684     0.73900
O3263       O  0.04477910  0.20762948  0.15962371    -0.39500
O3264       O  0.04272549  0.23882663  0.15983643    -0.39500
O3265       O  0.97093461  0.20004039  0.09677749    -0.40200
O3266       O  0.97156075  0.23034645  0.09054779    -0.40200
C3267       C  0.00235863  0.08484582  0.10658252    -0.12500
C3268       C  0.01708794  0.07080580  0.10765465     0.04500
C3269       C  0.02846602  0.06667045  0.09113468    -0.07800
C3270       C  0.02779111  0.07923555  0.07587463    -0.08600
C3271       C  0.01595355  0.09572988  0.07687547    -0.03100
C3272       C  0.00168834  0.09736970  0.09139177     0.03700
N3273       N  0.98714431  0.11223306  0.09170199     0.66200
H3274       H  0.99234876  0.08730870  0.11842032     0.15100
H3275       H  0.03818022  0.07712348  0.06430863     0.14800
N3276       N  0.04200763  0.05098780  0.09002315     0.73900
O3277       O  0.97021274  0.10802881  0.08638826    -0.39500
O3278       O  0.98925134  0.12637182  0.10305252    -0.39500
O3279       O  0.03789148  0.03688998  0.07924297    -0.40200
O3280       O  0.05962935  0.05418017  0.09353160    -0.40200
C3281       C  0.11237145  0.00612421  0.15135469    -0.12500
C3282       C  0.09568889  0.99532900  0.14823857     0.04500
C3283       C  0.09252314  0.98728452  0.12965525    -0.07800
C3284       C  0.10442353  0.99225000  0.11436700    -0.08600
C3285       C  0.11919409  0.00539365  0.11713904    -0.03100
C3286       C  0.12374121  0.01171345  0.13594454     0.03700
N3287       N  0.13877346  0.02505330  0.13963949     0.66200
H3288       H  0.11520753  0.01246419  0.16540105     0.15100
H3289       H  0.10102454  0.98706558  0.09998511     0.14800
N3290       N  0.07656427  0.97514793  0.12559638     0.73900
O3291       O  0.13425200  0.04262940  0.14086474    -0.39500
O3292       O  0.15384184  0.01921952  0.14818681    -0.39500
O3293       O  0.06195640  0.98217698  0.11713466    -0.40200
O3294       O  0.07992532  0.95736384  0.12393906    -0.40200
C3295       C  0.11034676  0.00449990  0.26927781    -0.12500
C3296       C  0.12454315  0.01760809  0.26454941     0.04500
C3297       C  0.11872442  0.03642171  0.26004165    -0.07800
C3298       C  0.09904158  0.04136255  0.25857467    -0.08600
C3299       C  0.08479030  0.02751616  0.26044814    -0.03100
C3300       C  0.09057018  0.00913049  0.26698135     0.03700
N3301       N  0.07682848  0.99454862  0.27029606     0.66200
H3302       H  0.11460140  0.99007067  0.27318577     0.15100
H3303       H  0.09514478  0.05552723  0.25357849     0.14800
N3304       N  0.13262630  0.05040373  0.25548428     0.73900
O3305       O  0.07505402  0.98135620  0.25778838    -0.39500
O3306       O  0.07230941  0.99120673  0.28743315    -0.39500
O3307       O  0.13607801  0.05343459  0.23805060    -0.40200
O3308       O  0.13666438  0.06305314  0.26797029    -0.40200
C3309       C  0.99861199  0.97739209  0.09743349    -0.12500
C3310       C  0.99114726  0.99186152  0.08589858     0.04500
C3311       C  0.98535814  0.00940558  0.09439614    -0.07800
C3312       C  0.98854025  0.01289913  0.11407536    -0.08600
C3313       C  0.99732107  0.99880730  0.12558027    -0.03100
C3314       C  0.00195839  0.98070948  0.11702939     0.03700
N3315       N  0.01037885  0.96547957  0.12773550     0.66200
H3316       H  0.00247643  0.96354309  0.09104914     0.15100
H3317       H  0.98536609  0.02706757  0.12008914     0.14800
N3318       N  0.97660368  0.02379084  0.08287946     0.73900
O3319       O  0.99924621  0.95271075  0.13354439    -0.39500
O3320       O  0.02795751  0.96100204  0.12472077    -0.39500
O3321       O  0.95934271  0.02160085  0.07727472    -0.40200
O3322       O  0.98762058  0.03406691  0.07325420    -0.40200
C3323       C  0.96786363  0.14282173  0.21628818    -0.12500
C3324       C  0.97779771  0.15525321  0.22849531     0.04500
C3325       C  0.99308115  0.14787319  0.23993910    -0.07800
C3326       C  0.99941382  0.12878718  0.23748388    -0.08600
C3327       C  0.99093382  0.11682742  0.22359891    -0.03100
C3328       C  0.97429075  0.12381335  0.21362388     0.03700
N3329       N  0.96407378  0.11219132  0.20006856     0.66200
H3330       H  0.95591601  0.14822220  0.20766806     0.15100
H3331       H  0.01202614  0.12382760  0.24541977     0.14800
N3332       N  0.00264366  0.15958216  0.25392049     0.73900
O3333       O  0.94871645  0.10443227  0.20553692    -0.39500
O3334       O  0.96604973  0.11548776  0.18244392    -0.39500
O3335       O  0.99815950  0.15783000  0.27134256    -0.40200
O3336       O  0.01904811  0.16611513  0.24990676    -0.40200
C3337       C  0.06955348  0.12869572  0.23229284    -0.12500
C3338       C  0.07977897  0.11231634  0.23811347     0.04500
C3339       C  0.09962929  0.11408846  0.24287869    -0.07800
C3340       C  0.10934933  0.13090514  0.23891785    -0.08600
C3341       C  0.09989644  0.14581441  0.22940672    -0.03100
C3342       C  0.07946424  0.14524265  0.22747939     0.03700
N3343       N  0.06859557  0.16060653  0.21933510     0.66200
H3344       H  0.05424036  0.12784021  0.22880717     0.15100
H3345       H  0.12494464  0.13114658  0.24103846     0.14800
N3346       N  0.11083679  0.09838388  0.24980868     0.73900
O3347       O  0.06267823  0.15862095  0.20227150    -0.39500
O3348       O  0.05943010  0.17192335  0.23058548    -0.39500
O3349       O  0.12302107  0.09050631  0.23852137    -0.40200
O3350       O  0.11399740  0.09783047  0.26763466    -0.40200
C3351       C  0.20465203  0.14008078  0.10112601    -0.12500
C3352       C  0.18881830  0.15275071  0.09977503     0.04500
C3353       C  0.17888234  0.15399896  0.08202884    -0.07800
C3354       C  0.18238210  0.14014640  0.06775046    -0.08600
C3355       C  0.19483286  0.12461687  0.07128176    -0.03100
C3356       C  0.20795717  0.12611946  0.08689817     0.03700
N3357       N  0.22394799  0.11308730  0.08929999     0.66200
H3358       H  0.21360469  0.14001970  0.11394480     0.15100
H3359       H  0.17289090  0.13997738  0.05533794     0.14800
N3360       N  0.16369722  0.16764937  0.07873235     0.73900
O3361       O  0.24058559  0.11869640  0.08474794    -0.39500
O3362       O  0.22272606  0.10047864  0.10192166    -0.39500
O3363       O  0.16716393  0.18093318  0.06733109    -0.40200
O3364       O  0.14640260  0.16233378  0.08048969    -0.40200
C3365       C  0.08780667  0.23402148  0.10364915    -0.12500
C3366       C  0.09722747  0.22598811  0.08750145     0.04500
C3367       C  0.11746854  0.22793561  0.08593418    -0.07800
C3368       C  0.12793628  0.23586420  0.10120031    -0.08600
C3369       C  0.11901569  0.24026795  0.11893492    -0.03100
C3370       C  0.09848961  0.24088155  0.11946004     0.03700
N3371       N  0.08815836  0.24629877  0.13646578     0.66200
H3372       H  0.07218244  0.23304559  0.10492584     0.15100
H3373       H  0.14355394  0.23543843  0.09998413     0.14800
N3374       N  0.12814645  0.21981722  0.07014132     0.73900
O3375       O  0.07909882  0.26218061  0.13694614    -0.39500
O3376       O  0.08285606  0.23327519  0.14743311    -0.39500
O3377       O  0.13687393  0.23095814  0.05929440    -0.40200
O3378       O  0.13479254  0.20299563  0.07164496    -0.40200
C3379       C  0.21014303  0.24469009  0.08414261    -0.12500
C3380       C  0.22402008  0.23153779  0.07700280     0.04500
C3381       C  0.23365990  0.21928467  0.08997198    -0.07800
C3382       C  0.22755023  0.21882172  0.10917009    -0.08600
C3383       C  0.21203294  0.23042018  0.11571292    -0.03100
C3384       C  0.20422287  0.24438235  0.10330524     0.03700
N3385       N  0.18939299  0.25766277  0.10949350     0.66200
H3386       H  0.20314196  0.25471748  0.07453571     0.15100
H3387       H  0.23352669  0.20783453  0.11835926     0.14800
N3388       N  0.24826005  0.20583213  0.08369877     0.73900
O3389       O  0.19428790  0.27442925  0.11419468    -0.39500
O3390       O  0.17229256  0.25510345  0.10368341    -0.39500
O3391       O  0.26560725  0.20884427  0.08853262    -0.40200
O3392       O  0.24333345  0.18887508  0.07985191    -0.40200
C3393       C  0.17159172  0.10091848  0.21006455    -0.12500
C3394       C  0.17765490  0.11632640  0.22167497     0.04500
C3395       C  0.18649269  0.11204242  0.23948651    -0.07800
C3396       C  0.19047008  0.09278261  0.24423972    -0.08600
C3397       C  0.18554961  0.07739876  0.23183577    -0.03100
C3398       C  0.17538218  0.08185894  0.21473459     0.03700
N3399       N  0.16955067  0.06752751  0.20111978     0.66200
H3400       H  0.16419062  0.10368250  0.19662438     0.15100
H3401       H  0.19774388  0.08991348  0.25770954     0.14800
N3402       N  0.19216295  0.12670835  0.25276673     0.73900
O3403       O  0.15199019  0.06277496  0.20096095    -0.39500
O3404       O  0.17913202  0.06560709  0.18576200    -0.39500
O3405       O  0.18208019  0.12938776  0.26773493    -0.40200
O3406       O  0.20977471  0.13130668  0.25320206    -0.40200
C3407       C  0.07544438  0.24374334  0.24159443    -0.12500
C3408       C  0.06328301  0.23482134  0.22806238     0.04500
C3409       C  0.07143635  0.22020060  0.21615644    -0.07800
C3410       C  0.09047312  0.21393123  0.21857320    -0.08600
C3411       C  0.10298556  0.22330695  0.23109115    -0.03100
C3412       C  0.09538513  0.23858382  0.24271077     0.03700
N3413       N  0.10733490  0.24879917  0.25591721     0.66200
H3414       H  0.06958686  0.25489784  0.25109538     0.15100
H3415       H  0.09606977  0.20299793  0.20867477     0.14800
N3416       N  0.06238615  0.21452968  0.19875360     0.73900
O3417       O  0.11295307  0.26517118  0.25138966    -0.39500
O3418       O  0.10632741  0.24483883  0.27347197    -0.39500
O3419       O  0.06796821  0.22291064  0.18398857    -0.40200
O3420       O  0.05697594  0.19747557  0.19698985    -0.40200
C3421       C  0.85265429  0.44725501  0.23613609    -0.12500
C3422       C  0.86636100  0.46106316  0.23196576     0.04500
C3423       C  0.85962596  0.47897621  0.22513298    -0.07800
C3424       C  0.83961076  0.48312915  0.22429985    -0.08600
C3425       C  0.82613527  0.47017911  0.23113261    -0.03100
C3426       C  0.83284978  0.45182040  0.23654415     0.03700
N3427       N  0.82012357  0.43797109  0.24398575     0.66200
H3428       H  0.85735053  0.43345228  0.24150005     0.15100
H3429       H  0.83471215  0.49714519  0.21969089     0.14800
N3430       N  0.87268378  0.49340190  0.21950319     0.73900
O3431       O  0.81537178  0.42411282  0.23317224    -0.39500
O3432       O  0.82001376  0.43575187  0.26191116    -0.39500
O3433       O  0.87500332  0.49598649  0.20178361    -0.40200
O3434       O  0.87577527  0.50714641  0.23108267    -0.40200
C3435       C  0.94816886  0.36078458  0.23642295    -0.12500
C3436       C  0.96054214  0.37064230  0.24897032     0.04500
C3437       C  0.97845903  0.36179256  0.25405969    -0.07800
C3438       C  0.98270281  0.34294906  0.24802187    -0.08600
C3439       C  0.96922082  0.33235337  0.23747183    -0.03100
C3440       C  0.95214873  0.34174681  0.23087665     0.03700
N3441       N  0.93826947  0.33219032  0.21906057     0.66200
H3442       H  0.93446342  0.36729243  0.23211920     0.15100
H3443       H  0.99593651  0.33606796  0.25310022     0.14800
N3444       N  0.99226003  0.37121385  0.26606408     0.73900
O3445       O  0.92245742  0.32751510  0.22656239    -0.39500
O3446       O  0.93857803  0.33507179  0.20124820    -0.39500
O3447       O  0.99273533  0.36725951  0.28365172    -0.40200
O3448       O  0.00743137  0.37733723  0.25837635    -0.40200
C3449       C  0.96817599  0.50582442  0.35789459    -0.12500
C3450       C  0.97515481  0.48931815  0.34833208     0.04500
C3451       C  0.98777552  0.47683842  0.35810360    -0.07800
C3452       C  0.99079820  0.47948511  0.37802068    -0.08600
C3453       C  0.98201278  0.49511838  0.38814100    -0.03100
C3454       C  0.97150296  0.50891877  0.37751076     0.03700
N3455       N  0.96207752  0.52510228  0.38648999     0.66200
H3456       H  0.95829058  0.51545272  0.35050896     0.15100
H3457       H  0.99941906  0.46899070  0.38570276     0.14800
N3458       N  0.99614028  0.46061930  0.34811290     0.73900
O3459       O  0.96927269  0.54133500  0.38404453    -0.39500
O3460       O  0.94409503  0.52421764  0.38969324    -0.39500
O3461       O  0.00943396  0.46339410  0.33610110    -0.40200
O3462       O  0.98649258  0.44549796  0.34660268    -0.40200
C3463       C  0.96354469  0.38687084  0.36828214    -0.12500
C3464       C  0.95089548  0.40296182  0.36942697     0.04500
C3465       C  0.93626707  0.40324871  0.38364414    -0.07800
C3466       C  0.93274008  0.38680790  0.39386014    -0.08600
C3467       C  0.94294711  0.36965505  0.38993218    -0.03100
C3468       C  0.95959598  0.37014036  0.37823120     0.03700
N3469       N  0.97162946  0.35359754  0.37472125     0.66200
H3470       H  0.97533831  0.38644898  0.35798807     0.15100
H3471       H  0.92067140  0.38707353  0.40386234     0.14800
N3472       N  0.92344913  0.41925612  0.38681847     0.73900
O3473       O  0.96872534  0.34367996  0.35967315    -0.39500
O3474       O  0.98830564  0.35314203  0.38223736    -0.39500
O3475       O  0.90636424  0.41839530  0.38033651    -0.40200
O3476       O  0.92659331  0.42997358  0.40121001    -0.40200
C3477       C  0.83219818  0.24739755  0.48463717    -0.12500
C3478       C  0.84353513  0.26244207  0.49174611     0.04500
C3479       C  0.83473014  0.27541343  0.50520198    -0.07800
C3480       C  0.81462051  0.27518670  0.50856030    -0.08600
C3481       C  0.80295548  0.26154522  0.49954074    -0.03100
C3482       C  0.81221326  0.24661009  0.48874052     0.03700
N3483       N  0.80183173  0.23022148  0.48229266     0.66200
H3484       H  0.83848091  0.23709676  0.47444525     0.15100
H3485       H  0.80801241  0.28616640  0.51780680     0.14800
N3486       N  0.84573515  0.28984503  0.51470282     0.73900
O3487       O  0.79757569  0.22853568  0.46475173    -0.39500
O3488       O  0.80314658  0.21527707  0.49209400    -0.39500
O3489       O  0.84343369  0.30691025  0.50959376    -0.40200
O3490       O  0.85153342  0.28680864  0.53156911    -0.40200
C3491       C  0.92949076  0.28839615  0.34178803    -0.12500
C3492       C  0.94290020  0.28624787  0.35685384     0.04500
C3493       C  0.96201205  0.28018669  0.35205901    -0.07800
C3494       C  0.96661747  0.27469745  0.33297727    -0.08600
C3495       C  0.95278096  0.27569738  0.31810936    -0.03100
C3496       C  0.93420375  0.28360656  0.32269097     0.03700
N3497       N  0.91951813  0.28643665  0.30848240     0.66200
H3498       H  0.91484846  0.29353210  0.34492403     0.15100
H3499       H  0.98119929  0.26942857  0.32983714     0.14800
N3500       N  0.97691244  0.27890918  0.36620037     0.73900
O3501       O  0.90640147  0.27416656  0.30675787    -0.39500
O3502       O  0.91587597  0.30331692  0.30323373    -0.39500
O3503       O  0.98194232  0.26254634  0.37197316    -0.40200
O3504       O  0.98899022  0.29223142  0.36731536    -0.40200
C3505       C  0.96613473  0.37516275  0.44520387    -0.12500
C3506       C  0.95940747  0.36438003  0.46042411     0.04500
C3507       C  0.95931328  0.37295110  0.47908666    -0.07800
C3508       C  0.96407295  0.39219648  0.48176804    -0.08600
C3509       C  0.96894160  0.40356356  0.46629595    -0.03100
C3510       C  0.97081390  0.39451682  0.44786596     0.03700
N3511       N  0.97739060  0.40445439  0.43151540     0.66200
H3512       H  0.96636235  0.36901816  0.43076996     0.15100
H3513       H  0.96306428  0.39847641  0.49610955     0.14800
N3514       N  0.95377379  0.36267155  0.49561290     0.73900
O3515       O  0.99494224  0.40221265  0.42666279    -0.39500
O3516       O  0.96512604  0.40861508  0.41873245    -0.39500
O3517       O  0.96700970  0.35716883  0.50688500    -0.40200
O3518       O  0.93691146  0.36554826  0.50225659    -0.40200
C3519       C  0.84087011  0.23385312  0.39297792    -0.12500
C3520       C  0.83473954  0.24708630  0.40735815     0.04500
C3521       C  0.81450562  0.24998744  0.40988127    -0.07800
C3522       C  0.80201562  0.24368309  0.39537352    -0.08600
C3523       C  0.80989623  0.23831117  0.37740204    -0.03100
C3524       C  0.82855451  0.22969422  0.37757323     0.03700
N3525       N  0.83627134  0.21922628  0.36142952     0.66200
H3526       H  0.85598266  0.22935323  0.39183613     0.15100
H3527       H  0.78701080  0.24847137  0.39632919     0.14800
N3528       N  0.80647267  0.26199139  0.42482764     0.73900
O3529       O  0.84778585  0.22753425  0.35046041    -0.39500
O3530       O  0.83750671  0.20122926  0.36244924    -0.39500
O3531       O  0.80309123  0.27938444  0.42131342    -0.40200
O3532       O  0.79642227  0.25428396  0.43750247    -0.40200
C3533       C  0.87384942  0.33881969  0.27292453    -0.12500
C3534       C  0.85469271  0.34085985  0.26650350     0.04500
C3535       C  0.85059352  0.35466552  0.25236623    -0.07800
C3536       C  0.86436534  0.36865943  0.24845123    -0.08600
C3537       C  0.88244648  0.36841634  0.25763888    -0.03100
C3538       C  0.88781112  0.35211152  0.26822430     0.03700
N3539       N  0.90670344  0.35006606  0.27645918     0.66200
H3540       H  0.87770406  0.32762109  0.28286416     0.15100
H3541       H  0.86014984  0.38077865  0.23980551     0.14800
N3542       N  0.83251418  0.35533453  0.24240038     0.73900
O3543       O  0.90886474  0.35382864  0.29411255    -0.39500
O3544       O  0.91871322  0.33874503  0.26828025    -0.39500
O3545       O  0.82131465  0.36960295  0.24524455    -0.40200
O3546       O  0.83135848  0.34622520  0.22661227    -0.40200
C3547       C  0.71399358  0.28887161  0.38156082    -0.12500
C3548       C  0.72521002  0.27335932  0.37420243     0.04500
C3549       C  0.72872700  0.25766910  0.38629243    -0.07800
C3550       C  0.72383906  0.25893093  0.40576941    -0.08600
C3551       C  0.71446217  0.27520238  0.41360567    -0.03100
C3552       C  0.70807412  0.28963753  0.40097324     0.03700
N3553       N  0.69572763  0.30511493  0.40737601     0.66200
H3554       H  0.71104184  0.30111728  0.37263476     0.15100
H3555       H  0.72778670  0.24713890  0.41497295     0.14800
N3556       N  0.73793595  0.24046371  0.37922397     0.73900
O3557       O  0.70311758  0.32112075  0.41118952    -0.39500
O3558       O  0.67795692  0.30460412  0.40301662    -0.39500
O3559       O  0.75516426  0.23679355  0.38427324    -0.40200
O3560       O  0.72729865  0.22674324  0.37419036    -0.40200
C3561       C  0.76955908  0.37436469  0.25113602    -0.12500
C3562       C  0.78320121  0.37227584  0.26576469     0.04500
C3563       C  0.79169359  0.38882955  0.27387873    -0.07800
C3564       C  0.78508132  0.40694663  0.26868213    -0.08600
C3565       C  0.77018634  0.40930934  0.25522955    -0.03100
C3566       C  0.76301452  0.39260097  0.24568713     0.03700
N3567       N  0.74847636  0.39346867  0.23110342     0.66200
H3568       H  0.76277631  0.36179366  0.24492761     0.15100
H3569       H  0.79114108  0.41922883  0.27607638     0.14800
N3570       N  0.80655056  0.38766184  0.28813022     0.73900
O3571       O  0.75376432  0.39114478  0.21385991    -0.39500
O3572       O  0.73128009  0.38948941  0.23550140    -0.39500
O3573       O  0.82385348  0.39010456  0.28296607    -0.40200
O3574       O  0.80202938  0.39128299  0.30539430    -0.40200
C3575       C  0.85211721  0.24035255  0.26184675    -0.12500
C3576       C  0.84473561  0.25858179  0.25698270     0.04500
C3577       C  0.85624338  0.26976379  0.24486240    -0.07800
C3578       C  0.87543345  0.26405582  0.24074562    -0.08600
C3579       C  0.88360414  0.24707102  0.24786953    -0.03100
C3580       C  0.87122340  0.23447755  0.25736552     0.03700
N3581       N  0.87790400  0.21629592  0.26391286     0.66200
H3582       H  0.84349055  0.23100195  0.27047364     0.15100
H3583       H  0.88429112  0.27345739  0.23239297     0.14800
N3584       N  0.84927776  0.28730965  0.23705208     0.73900
O3585       O  0.88261661  0.21486650  0.28134204    -0.39500
O3586       O  0.87244424  0.20149827  0.25487858    -0.39500
O3587       O  0.85600019  0.30274849  0.24369839    -0.40200
O3588       O  0.84300982  0.28694157  0.22001871    -0.40200
C3589       C  0.83417690  0.47301748  0.35741205    -0.12500
C3590       C  0.83955030  0.47956925  0.37572024     0.04500
C3591       C  0.85615039  0.49097405  0.37768319    -0.07800
C3592       C  0.86848760  0.49296981  0.36195481    -0.08600
C3593       C  0.86418117  0.48436855  0.34420276    -0.03100
C3594       C  0.84604688  0.47572146  0.34158860     0.03700
N3595       N  0.84040279  0.46741147  0.32362527     0.66200
H3596       H  0.82123517  0.46456326  0.35558460     0.15100
H3597       H  0.88227192  0.49995986  0.36402225     0.14800
N3598       N  0.86161544  0.49961090  0.39551979     0.73900
O3599       O  0.84333101  0.44969511  0.32086481    -0.39500
O3600       O  0.82700188  0.47562998  0.31436779    -0.39500
O3601       O  0.87721123  0.49385244  0.40313572    -0.40200
O3602       O  0.85605980  0.51668216  0.39883322    -0.40200
C3603       C  0.83708930  0.37763210  0.50346209    -0.12500
C3604       C  0.81839783  0.37686765  0.49557216     0.04500
C3605       C  0.81000058  0.35864970  0.49272967    -0.07800
C3606       C  0.82215703  0.34262278  0.49057808    -0.08600
C3607       C  0.84210082  0.34459913  0.49313930    -0.03100
C3608       C  0.84874573  0.36096184  0.50325825     0.03700
N3609       N  0.86783556  0.36121324  0.51132578     0.66200
H3610       H  0.84331952  0.39121718  0.50763861     0.15100
H3611       H  0.81634829  0.32941736  0.48473232     0.14800
N3612       N  0.78979868  0.35703114  0.48853213     0.73900
O3613       O  0.88046265  0.37188659  0.50436653    -0.39500
O3614       O  0.87306821  0.34810888  0.52253607    -0.39500
O3615       O  0.77793683  0.36790610  0.49739810    -0.40200
O3616       O  0.78436489  0.34822326  0.47350633    -0.40200
C3617       C  0.72668768  0.37388660  0.38806321    -0.12500
C3618       C  0.73658083  0.37085289  0.40529221     0.04500
C3619       C  0.74082105  0.35167108  0.41053573    -0.07800
C3620       C  0.74057821  0.33734443  0.39641514    -0.08600
C3621       C  0.73689323  0.34210329  0.37737201    -0.03100
C3622       C  0.72683153  0.35954631  0.37388091     0.03700
N3623       N  0.71779478  0.36353283  0.35593049     0.66200
H3624       H  0.72123888  0.38803672  0.38448561     0.15100
H3625       H  0.74633029  0.32328286  0.39993618     0.14800
N3626       N  0.74777653  0.34657912  0.42911283     0.73900
O3627       O  0.69964340  0.36169362  0.35476688    -0.39500
O3628       O  0.72583125  0.37508608  0.34492216    -0.39500
O3629       O  0.73640897  0.33784986  0.43989717    -0.40200
O3630       O  0.76579184  0.34381820  0.43128549    -0.40200
C3631       C  0.73887816  0.37777687  0.50241185    -0.12500
C3632       C  0.73156723  0.38620519  0.48560574     0.04500
C3633       C  0.71918028  0.37504518  0.47380062    -0.07800
C3634       C  0.71741645  0.35540919  0.47675296    -0.08600
C3635       C  0.72729466  0.34656321  0.49167494    -0.03100
C3636       C  0.73692589  0.35796096  0.50536847     0.03700
N3637       N  0.74579023  0.34910885  0.52158175     0.66200
H3638       H  0.74812793  0.38598596  0.51196535     0.15100
H3639       H  0.70833935  0.34699531  0.46720812     0.14800
N3640       N  0.70854910  0.38321075  0.45832947     0.73900
O3641       O  0.73553872  0.34671506  0.53628916    -0.39500
O3642       O  0.76052930  0.33835201  0.51889447    -0.39500
O3643       O  0.71372370  0.37885675  0.44142398    -0.40200
O3644       O  0.69098854  0.38783769  0.46126534    -0.40200
C3645       C  0.74082552  0.47208690  0.36434450    -0.12500
C3646       C  0.75703960  0.48183823  0.37161491     0.04500
C3647       C  0.76835462  0.49205610  0.35849637    -0.07800
C3648       C  0.76437059  0.49081084  0.33873433    -0.08600
C3649       C  0.74868780  0.48033317  0.33154900    -0.03100
C3650       C  0.73645469  0.47142921  0.34471743     0.03700
N3651       N  0.71994227  0.46091840  0.33858484     0.66200
H3652       H  0.73160075  0.46428754  0.37386131     0.15100
H3653       H  0.77332220  0.49863404  0.32893556     0.14800
N3654       N  0.78318068  0.50468797  0.36480517     0.73900
O3655       O  0.72171182  0.44296677  0.33662081    -0.39500
O3656       O  0.70330418  0.46810584  0.34191819    -0.39500
O3657       O  0.80061831  0.50008606  0.36130755    -0.40200
O3658       O  0.77877048  0.52220389  0.36714549    -0.40200
C3659       C  0.87356215  0.47576671  0.43942083    -0.12500
C3660       C  0.86072950  0.48421013  0.45298839     0.04500
C3661       C  0.86873019  0.49382659  0.46905562    -0.07800
C3662       C  0.88886905  0.49478689  0.47125224    -0.08600
C3663       C  0.90179007  0.48594454  0.45803263    -0.03100
C3664       C  0.89385432  0.47674815  0.44167580     0.03700
N3665       N  0.90617376  0.46721174  0.42795254     0.66200
H3666       H  0.86778700  0.46738649  0.42751640     0.15100
H3667       H  0.89432322  0.50198016  0.48403340     0.14800
N3668       N  0.85684715  0.50202298  0.48395066     0.73900
O3669       O  0.91176263  0.45029196  0.43120504    -0.39500
O3670       O  0.91556461  0.47701671  0.41626584    -0.39500
O3671       O  0.85472762  0.49261192  0.49903895    -0.40200
O3672       O  0.85523913  0.52004101  0.48507034    -0.40200
C3673       C  0.74591217  0.70886165  0.10464317    -0.12500
C3674       C  0.73439104  0.72296112  0.11384917     0.04500
C3675       C  0.72771464  0.73857948  0.10310875    -0.07800
C3676       C  0.73019731  0.73863140  0.08301226    -0.08600
C3677       C  0.74065606  0.72373680  0.07344610    -0.03100
C3678       C  0.74984839  0.70958640  0.08485811     0.03700
N3679       N  0.76369308  0.69614669  0.07698331     0.66200
H3680       H  0.75115401  0.69668087  0.11267639     0.15100
H3681       H  0.72419246  0.75043308  0.07491162     0.14800
N3682       N  0.71812558  0.75427833  0.11286469     0.73900
O3683       O  0.78143708  0.69988633  0.07895420    -0.39500
O3684       O  0.75899291  0.67883528  0.07522499    -0.39500
O3685       O  0.72834151  0.76547275  0.12288452    -0.40200
O3686       O  0.70041108  0.75294486  0.11698461    -0.40200
C3687       C  0.70317501  0.61644859  0.23902932    -0.12500
C3688       C  0.68975621  0.61829001  0.22409076     0.04500
C3689       C  0.68259468  0.60128125  0.21534810    -0.07800
C3690       C  0.69002855  0.58332505  0.22048931    -0.08600
C3691       C  0.70487812  0.58137336  0.23412306    -0.03100
C3692       C  0.71078992  0.59834514  0.24412866     0.03700
N3693       N  0.72499358  0.59791054  0.25903039     0.66200
H3694       H  0.70894080  0.62922235  0.24585042     0.15100
H3695       H  0.68456745  0.57082243  0.21293042     0.14800
N3696       N  0.66843077  0.60176515  0.20034664     0.73900
O3697       O  0.74212957  0.60243384  0.25500850    -0.39500
O3698       O  0.71926504  0.60004478  0.27615694    -0.39500
O3699       O  0.67414036  0.59877747  0.18333107    -0.40200
O3700       O  0.65117881  0.59770861  0.20442947    -0.40200
C3701       C  0.60469226  0.71045822  0.24121169    -0.12500
C3702       C  0.61529286  0.72520763  0.23289785     0.04500
C3703       C  0.60569394  0.74324140  0.23074769    -0.07800
C3704       C  0.58575368  0.74517446  0.23391454    -0.08600
C3705       C  0.57485868  0.72995700  0.24022579    -0.03100
C3706       C  0.58474121  0.71298068  0.24581226     0.03700
N3707       N  0.57540830  0.69938977  0.25778878     0.66200
H3708       H  0.61193860  0.69690930  0.24399752     0.15100
H3709       H  0.57862350  0.75882423  0.23111810     0.14800
N3710       N  0.61565853  0.76000206  0.22534205     0.73900
O3711       O  0.58281993  0.68289123  0.25980715    -0.39500
O3712       O  0.56278103  0.70522232  0.26977906    -0.39500
O3713       O  0.61216708  0.76658200  0.20895471    -0.40200
O3714       O  0.62048826  0.77161729  0.23855161    -0.40200
C3715       C  0.61733391  0.76321287  0.10603083    -0.12500
C3716       C  0.62330053  0.75427340  0.08883343     0.04500
C3717       C  0.64325235  0.75273136  0.08497741    -0.07800
C3718       C  0.65623770  0.75389380  0.10032837    -0.08600
C3719       C  0.64907084  0.75603558  0.11921695    -0.03100
C3720       C  0.63002728  0.76380243  0.12159892     0.03700
N3721       N  0.62192871  0.76871908  0.13993038     0.66200
H3722       H  0.60207799  0.76632119  0.10866898     0.15100
H3723       H  0.67113076  0.74948361  0.09771276     0.14800
N3724       N  0.64997637  0.74706909  0.06626930     0.73900
O3725       O  0.61974203  0.78628048  0.14419608    -0.39500
O3726       O  0.61051812  0.75705176  0.14733396    -0.39500
O3727       O  0.64204359  0.75439333  0.05177635    -0.40200
O3728       O  0.66051074  0.73218863  0.06412563    -0.40200
C3729       C  0.63409036  0.75501245  0.00919912    -0.12500
C3730       C  0.62416928  0.73921577  0.00109488     0.04500
C3731       C  0.63461352  0.72729429  0.98781804    -0.07800
C3732       C  0.65464222  0.72935785  0.98530653    -0.08600
C3733       C  0.66478265  0.74360076  0.99513091    -0.03100
C3734       C  0.65425496  0.75727666  0.00619138     0.03700
N3735       N  0.66438481  0.77234921  0.01581278     0.66200
H3736       H  0.62661594  0.76446893  0.01940007     0.15100
H3737       H  0.66251795  0.71909518  0.97620578     0.14800
N3738       N  0.62571615  0.71169277  0.97796409     0.73900
O3739       O  0.66836769  0.78701495  0.00644024    -0.39500
O3740       O  0.67463359  0.76836067  0.03028121    -0.39500
O3741       O  0.62277568  0.71319119  0.96017022    -0.40200
O3742       O  0.62821914  0.69517824  0.98457617    -0.40200
C3743       C  0.50546766  0.71320425  0.12969373    -0.12500
C3744       C  0.50913392  0.72812096  0.11723066     0.04500
C3745       C  0.50873482  0.74710401  0.12522085    -0.07800
C3746       C  0.50563533  0.75039232  0.14506854    -0.08600
C3747       C  0.50347332  0.73523686  0.15773717    -0.03100
C3748       C  0.50293684  0.71647490  0.14952375     0.03700
N3749       N  0.50042328  0.70015988  0.16099418     0.66200
H3750       H  0.50597888  0.69852597  0.12429312     0.15100
H3751       H  0.50570005  0.76498744  0.15067436     0.14800
N3752       N  0.51173769  0.76340616  0.11367370     0.73900
O3753       O  0.48393480  0.69263537  0.16115764    -0.39500
O3754       O  0.51521885  0.68984707  0.16431910    -0.39500
O3755       O  0.49713809  0.77362859  0.10932169    -0.40200
O3756       O  0.52817828  0.77104323  0.11416766    -0.40200
C3757       C  0.50133120  0.61902073  0.02105412    -0.12500
C3758       C  0.51610366  0.62257774  0.03441642     0.04500
C3759       C  0.52600688  0.60670238  0.04223910    -0.07800
C3760       C  0.52087967  0.58786140  0.03707911    -0.08600
C3761       C  0.50622339  0.58389537  0.02341538    -0.03100
C3762       C  0.49631123  0.60007880  0.01548021     0.03700
N3763       N  0.48102305  0.59798926  0.00183389     0.66200
H3764       H  0.49416035  0.63102708  0.01421605     0.15100
H3765       H  0.52915005  0.57620743  0.04334470     0.14800
N3766       N  0.54278687  0.60966222  0.05399641     0.73900
O3767       O  0.46381379  0.60035457  0.00773122    -0.39500
O3768       O  0.48463271  0.60142811  0.98450294    -0.39500
O3769       O  0.54130514  0.61971803  0.06920961    -0.40200
O3770       O  0.55931212  0.60718365  0.04649822    -0.40200
C3771       C  0.63693348  0.62247161  0.99733352    -0.12500
C3772       C  0.65388115  0.62482153  0.00809111     0.04500
C3773       C  0.66039467  0.64380054  0.01176639    -0.07800
C3774       C  0.64782636  0.65924045  0.00866067    -0.08600
C3775       C  0.62873124  0.65600672  0.00307458    -0.03100
C3776       C  0.62448168  0.63808425  0.99430558     0.03700
N3777       N  0.60738061  0.63512269  0.98312085     0.66200
H3778       H  0.63249581  0.60833764  0.99259793     0.15100
H3779       H  0.65203426  0.67331873  0.01384197     0.14800
N3780       N  0.67834676  0.64789035  0.02110682     0.73900
O3781       O  0.60904460  0.63508614  0.96508271    -0.39500
O3782       O  0.59368383  0.62595094  0.99029939    -0.39500
O3783       O  0.69225558  0.65329723  0.01097922    -0.40200
O3784       O  0.67785654  0.65314466  0.03853146    -0.40200
C3785       C  0.72945306  0.63888824  0.07745830    -0.12500
C3786       C  0.73852634  0.62267171  0.08554563     0.04500
C3787       C  0.74443421  0.62407631  0.10484028    -0.07800
C3788       C  0.73633290  0.63843935  0.11658482    -0.08600
C3789       C  0.72224289  0.65123656  0.10939386    -0.03100
C3790       C  0.72067682  0.65296694  0.08931567     0.03700
N3791       N  0.70908337  0.66761563  0.08066989     0.66200
H3792       H  0.72623337  0.63914680  0.06222536     0.15100
H3793       H  0.73978176  0.63836154  0.13177552     0.14800
N3794       N  0.75763199  0.61059110  0.11312025     0.73900
O3795       O  0.71754405  0.68083884  0.07216438    -0.39500
O3796       O  0.69178107  0.66405180  0.07614627    -0.39500
O3797       O  0.77514583  0.61529785  0.11485626    -0.40200
O3798       O  0.75104085  0.59847247  0.12445321    -0.40200
C3799       C  0.72838932  0.61608782  0.98755146    -0.12500
C3800       C  0.73921994  0.60568283  0.00101147     0.04500
C3801       C  0.75423081  0.61517828  0.01099688    -0.07800
C3802       C  0.75578383  0.63503276  0.00993567    -0.08600
C3803       C  0.74295318  0.64577400  0.99870729    -0.03100
C3804       C  0.72997401  0.63600715  0.98640477     0.03700
N3805       N  0.71891562  0.64574861  0.97211436     0.66200
H3806       H  0.71695751  0.60907208  0.97951442     0.15100
H3807       H  0.76677262  0.64218527  0.01846068     0.14800
N3808       N  0.76702576  0.60526090  0.02367037     0.73900
O3809       O  0.72633664  0.64725070  0.95568740    -0.39500
O3810       O  0.70066269  0.64644302  0.97356766    -0.39500
O3811       O  0.78424071  0.60199184  0.01817385    -0.40200
O3812       O  0.76369680  0.60636850  0.04145921    -0.40200
C3813       C  0.70468731  0.49616010  0.12901495    -0.12500
C3814       C  0.71982319  0.50188781  0.11720398     0.04500
C3815       C  0.73879519  0.50255725  0.12492914    -0.07800
C3816       C  0.74161439  0.50074580  0.14459867    -0.08600
C3817       C  0.72596556  0.49783844  0.15692519    -0.03100
C3818       C  0.70759857  0.49391701  0.14872307     0.03700
N3819       N  0.69185580  0.48712423  0.15978842     0.66200
H3820       H  0.69010133  0.49494174  0.12330776     0.15100
H3821       H  0.75611649  0.50268076  0.15028217     0.14800
N3822       N  0.75540895  0.50559086  0.11324494     0.73900
O3823       O  0.67794217  0.49851661  0.16372144    -0.39500
O3824       O  0.68854669  0.46942603  0.15895600    -0.39500
O3825       O  0.76350940  0.52161735  0.11440582    -0.40200
O3826       O  0.76549852  0.49110628  0.10807923    -0.40200
C3827       C  0.61199169  0.50114686  0.02002914    -0.12500
C3828       C  0.61683641  0.50754889  0.03853559     0.04500
C3829       C  0.60198798  0.50948056  0.05243875    -0.07800
C3830       C  0.58265225  0.50626925  0.04729694    -0.08600
C3831       C  0.57757126  0.50114451  0.02841799    -0.03100
C3832       C  0.59269521  0.49771325  0.01487741     0.03700
N3833       N  0.58888824  0.49220083  0.99541080     0.66200
H3834       H  0.62315803  0.49998390  0.00908501     0.15100
H3835       H  0.57145685  0.50844485  0.05809323     0.14800
N3836       N  0.60588921  0.51611297  0.07152260     0.73900
O3837       O  0.58775857  0.50511624  0.98304864    -0.39500
O3838       O  0.59347578  0.47537066  0.98994455    -0.39500
O3839       O  0.60242907  0.53350019  0.07576140    -0.40200
O3840       O  0.60578319  0.50407455  0.08473884    -0.40200
C3841       C  0.50342978  0.61334932  0.12329885    -0.12500
C3842       C  0.50722170  0.61881964  0.14238544     0.04500
C3843       C  0.51143102  0.63825367  0.14631677    -0.07800
C3844       C  0.51654740  0.65012872  0.13137533    -0.08600
C3845       C  0.51552513  0.64374670  0.11228207    -0.03100
C3846       C  0.50683439  0.62588364  0.10825634     0.03700
N3847       N  0.50093713  0.62014562  0.08940580     0.66200
H3848       H  0.49875151  0.59895166  0.11987247     0.15100
H3849       H  0.52181932  0.66432856  0.13473569     0.14800
N3850       N  0.51017696  0.64633695  0.16524694     0.73900
O3851       O  0.50859167  0.60513423  0.08213096    -0.39500
O3852       O  0.48384167  0.62456073  0.08440064    -0.39500
O3853       O  0.52545655  0.65165704  0.17360264    -0.40200
O3854       O  0.49414475  0.65371465  0.17047638    -0.40200
C3855       C  0.63324115  0.52139151  0.15806686    -0.12500
C3856       C  0.61777431  0.50964840  0.15279960     0.04500
C3857       C  0.61977467  0.49842506  0.13581144    -0.07800
C3858       C  0.63419399  0.50273650  0.12245836    -0.08600
C3859       C  0.64647110  0.51819739  0.12581202    -0.03100
C3860       C  0.64701407  0.52649244  0.14453505     0.03700
N3861       N  0.65982490  0.54162894  0.14959153     0.66200
H3862       H  0.63248980  0.52959533  0.17147203     0.15100
H3863       H  0.63471134  0.49494653  0.10884788     0.14800
N3864       N  0.60809359  0.48214506  0.13217230     0.73900
O3865       O  0.65307362  0.55854919  0.14990654    -0.39500
O3866       O  0.67436674  0.53784046  0.15996128    -0.39500
O3867       O  0.59780947  0.48183117  0.11720296    -0.40200
O3868       O  0.61384601  0.46635817  0.13883383    -0.40200
C3869       C  0.60167644  0.62738822  0.24399187    -0.12500
C3870       C  0.58315438  0.63019655  0.23606938     0.04500
C3871       C  0.57809345  0.64864897  0.22940875    -0.07800
C3872       C  0.59280837  0.66122261  0.22519531    -0.08600
C3873       C  0.61218211  0.65625173  0.22885494    -0.03100
C3874       C  0.61638139  0.64022269  0.24027291     0.03700
N3875       N  0.63571423  0.63499262  0.24566473     0.66200
H3876       H  0.60566819  0.61386055  0.25040407     0.15100
H3877       H  0.58918930  0.67430927  0.21776274     0.14800
N3878       N  0.55852495  0.65434216  0.22522551     0.73900
O3879       O  0.64494709  0.62307308  0.23514675    -0.39500
O3880       O  0.64033667  0.63650395  0.26315461    -0.39500
O3881       O  0.54963575  0.66494544  0.23734653    -0.40200
O3882       O  0.55320857  0.65484527  0.20790696    -0.40200
C3883       C  0.64213667  0.49155407  0.23118090    -0.12500
C3884       C  0.64859701  0.50038162  0.24823973     0.04500
C3885       C  0.63478570  0.50951192  0.26037514    -0.07800
C3886       C  0.61569831  0.51225075  0.25379757    -0.08600
C3887       C  0.61005977  0.50608502  0.23524425    -0.03100
C3888       C  0.62308877  0.49412751  0.22466920     0.03700
N3889       N  0.61820129  0.48610597  0.20635854     0.66200
H3890       H  0.65241350  0.48376566  0.22199645     0.15100
H3891       H  0.60573745  0.52087475  0.26256913     0.14800
N3892       N  0.63995421  0.51737895  0.27868784     0.73900
O3893       O  0.62421385  0.49427612  0.19162186    -0.39500
O3894       O  0.61491558  0.46841371  0.20523018    -0.39500
O3895       O  0.64197565  0.53524907  0.28039159    -0.40200
O3896       O  0.63577314  0.50807877  0.29339565    -0.40200
C3897       C  0.50609579  0.64683063  0.26124700    -0.12500
C3898       C  0.49448312  0.65770307  0.24893121     0.04500
C3899       C  0.48357366  0.64819253  0.23460090    -0.07800
C3900       C  0.48580615  0.62842603  0.23176756    -0.08600
C3901       C  0.49963828  0.61797216  0.24213099    -0.03100
C3902       C  0.50908335  0.62714406  0.25776222     0.03700
N3903       N  0.52329654  0.61735034  0.26901032     0.66200
H3904       H  0.51429703  0.65390922  0.27254083     0.15100
H3905       H  0.47864647  0.62171979  0.21955389     0.14800
N3906       N  0.47115262  0.65839258  0.22182449     0.73900
O3907       O  0.54098198  0.61928526  0.26495014    -0.39500
O3908       O  0.51884999  0.61307068  0.28593012    -0.39500
O3909       O  0.47774590  0.66263106  0.20562138    -0.40200
O3910       O  0.45304298  0.65694268  0.22375389    -0.40200
C3911       C  0.53198437  0.48409969  0.10228439    -0.12500
C3912       C  0.51233454  0.48585340  0.09677508     0.04500
C3913       C  0.49836178  0.49010473  0.11115774    -0.07800
C3914       C  0.50428017  0.49464959  0.12987346    -0.08600
C3915       C  0.52392887  0.49503350  0.13483524    -0.03100
C3916       C  0.53766829  0.48822191  0.12137534     0.03700
N3917       N  0.55759358  0.48742094  0.12668328     0.66200
H3918       H  0.54297505  0.48059077  0.09158692     0.15100
H3919       H  0.49347719  0.49981430  0.14014899     0.14800
N3920       N  0.47818026  0.49189611  0.10687718     0.73900
O3921       O  0.56322366  0.47393279  0.13725025    -0.39500
O3922       O  0.56684339  0.50283725  0.12703064    -0.39500
O3923       O  0.46718252  0.47901282  0.11268484    -0.40200
O3924       O  0.47107653  0.50848418  0.10457250    -0.40200
C3925       C  0.99069560  0.61515819  0.71863662    -0.12500
C3926       C  0.01015720  0.61007651  0.72276111     0.04500
C3927       C  0.02282155  0.62503346  0.72773489    -0.07800
C3928       C  0.01629393  0.64408277  0.72780512    -0.08600
C3929       C  0.99731331  0.64927315  0.72245367    -0.03100
C3930       C  0.98424590  0.63443775  0.71823168     0.03700
N3931       N  0.96492488  0.63838759  0.71193290     0.66200
H3932       H  0.98054211  0.60414411  0.71457015     0.15100
H3933       H  0.02661586  0.65507715  0.73157821     0.14800
N3934       N  0.04292105  0.62165836  0.73104532     0.73900
O3935       O  0.96152738  0.63769661  0.69412425    -0.39500
O3936       O  0.95117930  0.63551362  0.72339206    -0.39500
O3937       O  0.05445355  0.62478624  0.71746529    -0.40200
O3938       O  0.04901955  0.62280866  0.74811279    -0.40200
C3939       C  0.14126946  0.52496406  0.73767845    -0.12500
C3940       C  0.14898981  0.50749083  0.73056713     0.04500
C3941       C  0.13647896  0.49530307  0.72006400    -0.07800
C3942       C  0.11777182  0.50188252  0.71498396    -0.08600
C3943       C  0.11075397  0.52025906  0.72047880    -0.03100
C3944       C  0.12235997  0.53125412  0.73314741     0.03700
N3945       N  0.11599917  0.54936595  0.74080038     0.66200
H3946       H  0.15029771  0.53425002  0.74641719     0.15100
H3947       H  0.10899818  0.49282763  0.70575291     0.14800
N3948       N  0.14264274  0.47676839  0.71322650     0.73900
O3949       O  0.10963538  0.55001306  0.75777997    -0.39500
O3950       O  0.12382156  0.56407334  0.73443540    -0.39500
O3951       O  0.13681307  0.46238480  0.72205458    -0.40200
O3952       O  0.14710606  0.47471808  0.69572934    -0.40200
C3953       C  0.99075818  0.50682852  0.59352294    -0.12500
C3954       C  0.00359534  0.49771629  0.60625518     0.04500
C3955       C  0.01367778  0.48103040  0.59916261    -0.07800
C3956       C  0.01245454  0.47550462  0.57942977    -0.08600
C3957       C  0.00137065  0.48628967  0.56642313    -0.03100
C3958       C  0.98972791  0.50153662  0.57401558     0.03700
N3959       N  0.97721706  0.51254742  0.56199251     0.66200
H3960       H  0.98270750  0.51953563  0.59837030     0.15100
H3961       H  0.02123149  0.46350116  0.57408246     0.14800
N3962       N  0.02604122  0.47000311  0.61127583     0.73900
O3963       O  0.95922038  0.50962321  0.56262953    -0.39500
O3964       O  0.98292102  0.52854813  0.55642546    -0.39500
O3965       O  0.01980729  0.45434768  0.61724002    -0.40200
O3966       O  0.04413895  0.47206754  0.61007986    -0.40200
C3967       C  0.98372329  0.60260551  0.58063857    -0.12500
C3968       C  0.98458189  0.62173673  0.58687737     0.04500
C3969       C  0.97909968  0.62633055  0.60605826    -0.07800
C3970       C  0.97836499  0.61171402  0.61939217    -0.08600
C3971       C  0.98293983  0.59280370  0.61375148    -0.03100
C3972       C  0.98273844  0.58806581  0.59393134     0.03700
N3973       N  0.98324768  0.56870060  0.58700846     0.66200
H3974       H  0.98614931  0.59875707  0.56565152     0.15100
H3975       H  0.97699224  0.61564167  0.63448127     0.14800
N3976       N  0.97607934  0.64555767  0.61288582     0.73900
O3977       O  0.99912448  0.56164674  0.58087127    -0.39500
O3978       O  0.96761857  0.56173673  0.58083285    -0.39500
O3979       O  0.95878731  0.65153714  0.61497796    -0.40200
O3980       O  0.98905915  0.65299805  0.62323874    -0.40200
C3981       C  0.03276377  0.72704835  0.62195458    -0.12500
C3982       C  0.01710779  0.72771903  0.60907379     0.04500
C3983       C  0.99819584  0.73059857  0.61693629    -0.07800
C3984       C  0.99554391  0.73224967  0.63691795    -0.08600
C3985       C  0.01115400  0.73058481  0.64976251    -0.03100
C3986       C  0.03001213  0.72826460  0.64194753     0.03700
N3987       N  0.04677707  0.72780052  0.65391057     0.66200
H3988       H  0.04732463  0.72460088  0.61652196     0.15100
H3989       H  0.98091731  0.73423238  0.64243591     0.14800
N3990       N  0.98126920  0.73156312  0.60512894     0.73900
O3991       O  0.05558667  0.71198457  0.65610526    -0.39500
O3992       O  0.05600589  0.74307950  0.65630480    -0.39500
O3993       O  0.97071497  0.71702459  0.60396567    -0.40200
O3994       O  0.97356320  0.74781011  0.60232916    -0.40200
C3995       C  0.13290640  0.70358579  0.52415277    -0.12500
C3996       C  0.11780672  0.71731630  0.52254589     0.04500
C3997       C  0.12274322  0.73641506  0.51891143    -0.07800
C3998       C  0.14234752  0.74109852  0.51655996    -0.08600
C3999       C  0.15728296  0.72719910  0.51820252    -0.03100
C4000       C  0.15229252  0.70821935  0.52215121     0.03700
N4001       N  0.16648307  0.69312395  0.52365607     0.66200
H4002       H  0.12972599  0.68886185  0.52734251     0.15100
H4003       H  0.14591412  0.75578998  0.51362346     0.14800
N4004       N  0.10835869  0.75123815  0.51732558     0.73900
O4005       O  0.17127806  0.68774881  0.54020543    -0.39500
O4006       O  0.16842290  0.68138651  0.50972468    -0.39500
O4007       O  0.10629987  0.76305665  0.53116777    -0.40200
O4008       O  0.10338448  0.75636249  0.50074440    -0.40200
C4009       C  0.01585193  0.58795670  0.47658703    -0.12500
C4010       C  0.00779378  0.57513153  0.48948514     0.04500
C4011       C  0.99851708  0.58271439  0.50607494    -0.07800
C4012       C  0.99783537  0.60244664  0.50960014    -0.08600
C4013       C  0.00651897  0.61544401  0.49725689    -0.03100
C4014       C  0.01547644  0.60789540  0.48032055     0.03700
N4015       N  0.02468224  0.61983473  0.46687725     0.66200
H4016       H  0.02286444  0.58242935  0.46363467     0.15100
H4017       H  0.99053282  0.60757426  0.52255481     0.14800
N4018       N  0.98864940  0.57086928  0.51916059     0.73900
O4019       O  0.04294996  0.62074615  0.46727948    -0.39500
O4020       O  0.01601316  0.62306363  0.45127183    -0.39500
O4021       O  0.99692172  0.56690292  0.53479325    -0.40200
O4022       O  0.97035270  0.57069574  0.51843047    -0.40200
C4023       C  0.09136448  0.61028651  0.48387140    -0.12500
C4024       C  0.07696490  0.60427971  0.49659654     0.04500
C4025       C  0.07639866  0.58460541  0.50057813    -0.07800
C4026       C  0.09256039  0.57295887  0.49602955    -0.08600
C4027       C  0.10980184  0.58114839  0.48947055    -0.03100
C4028       C  0.10833742  0.59937086  0.48119877     0.03700
N4029       N  0.12438567  0.60815332  0.47222618     0.66200
H4030       H  0.09114737  0.62485635  0.47878662     0.15100
H4031       H  0.09260622  0.55834544  0.50096334     0.14800
N4032       N  0.06100644  0.57648826  0.51114077     0.73900
O4033       O  0.12438109  0.60897794  0.45415065    -0.39500
O4034       O  0.13350900  0.62067496  0.48170688    -0.39500
O4035       O  0.05035577  0.56460108  0.50251223    -0.40200
O4036       O  0.06279270  0.57539615  0.52910948    -0.40200
C4037       C  0.09116491  0.49371895  0.60683388    -0.12500
C4038       C  0.07428151  0.50382752  0.60172271     0.04500
C4039       C  0.07220748  0.50989718  0.58269095    -0.07800
C4040       C  0.08888720  0.51127851  0.57159418    -0.08600
C4041       C  0.10726944  0.50738419  0.57970284    -0.03100
C4042       C  0.10814625  0.49639658  0.59653811     0.03700
N4043       N  0.12594424  0.48964539  0.60471690     0.66200
H4044       H  0.09237314  0.48728245  0.62082177     0.15100
H4045       H  0.08753767  0.51797545  0.55775391     0.14800
N4046       N  0.05426196  0.51816311  0.57602213     0.73900
O4047       O  0.13263763  0.49868225  0.61907131    -0.39500
O4048       O  0.13008331  0.47202376  0.60284883    -0.39500
O4049       O  0.05417851  0.53409414  0.56780422    -0.40200
O4050       O  0.03836122  0.51127555  0.58113112    -0.40200
C4051       C  0.21689406  0.55227153  0.63496446    -0.12500
C4052       C  0.22300473  0.53981752  0.61998994     0.04500
C4053       C  0.23192362  0.52223372  0.62509416    -0.07800
C4054       C  0.23392646  0.51734542  0.64449997    -0.08600
C4055       C  0.22671559  0.52922199  0.65959749    -0.03100
C4056       C  0.21850933  0.54725554  0.65444808     0.03700
N4057       N  0.21128161  0.56072652  0.66849001     0.66200
H4058       H  0.20944664  0.56557912  0.63147785     0.15100
H4059       H  0.24055029  0.50355528  0.64761015     0.14800
N4060       N  0.23852109  0.50864343  0.61085398     0.73900
O4061       O  0.22187872  0.57457654  0.67323552    -0.39500
O4062       O  0.19312657  0.56276180  0.67025501    -0.39500
O4063       O  0.25649737  0.50745027  0.60745642    -0.40200
O4064       O  0.22827904  0.49420228  0.60736533    -0.40200
C4065       C  0.23896443  0.63068257  0.53215985    -0.12500
C4066       C  0.22892980  0.62009262  0.51792415     0.04500
C4067       C  0.22567042  0.62888280  0.49988639    -0.07800
C4068       C  0.22989187  0.64809258  0.49743172    -0.08600
C4069       C  0.23769281  0.65909632  0.51225527    -0.03100
C4070       C  0.24347158  0.65006915  0.52930043     0.03700
N4071       N  0.25408748  0.66052613  0.54353780     0.66200
H4072       H  0.24222731  0.62435585  0.54588689     0.15100
H4073       H  0.22604791  0.65470675  0.48396790     0.14800
N4074       N  0.21747126  0.61898259  0.48377804     0.73900
O4075       O  0.24499991  0.66866949  0.55723747    -0.39500
O4076       O  0.27087530  0.66609887  0.53946921    -0.39500
O4077       O  0.20047873  0.62373437  0.47874690    -0.40200
O4078       O  0.22897723  0.61257187  0.47099743    -0.40200
C4079       C  0.11251604  0.48571060  0.51389975    -0.12500
C4080       C  0.12390224  0.49621481  0.50132545     0.04500
C4081       C  0.11556081  0.50178464  0.48371645    -0.07800
C4082       C  0.09577969  0.49903952  0.48023596    -0.08600
C4083       C  0.08385020  0.49116959  0.49414263    -0.03100
C4084       C  0.09258715  0.48343412  0.51065085     0.03700
N4085       N  0.08164826  0.47319944  0.52427738     0.66200
H4086       H  0.11854936  0.48138603  0.52756936     0.15100
H4087       H  0.08944228  0.50430869  0.46705435     0.14800
N4088       N  0.12620672  0.51246161  0.47020579     0.73900
O4089       O  0.08200544  0.45514573  0.52311764    -0.39500
O4090       O  0.07767853  0.48122213  0.54022771    -0.39500
O4091       O  0.13203769  0.50398233  0.45504452    -0.40200
O4092       O  0.12377382  0.53041343  0.47013688    -0.40200
C4093       C  0.13326849  0.73262306  0.60608318    -0.12500
C4094       C  0.12903016  0.73492996  0.62582853     0.04500
C4095       C  0.10925299  0.73459216  0.63145904    -0.07800
C4096       C  0.09525562  0.72798624  0.61853733    -0.08600
C4097       C  0.10026327  0.72290345  0.59977480    -0.03100
C4098       C  0.11898532  0.72650274  0.59316998     0.03700
N4099       N  0.12382020  0.72271143  0.57359851     0.66200
H4100       H  0.14806548  0.73359265  0.60097115     0.15100
H4101       H  0.08056264  0.72604534  0.62347408     0.14800
N4102       N  0.10297043  0.73979769  0.65035963     0.73900
O4103       O  0.11876157  0.73497231  0.56147080    -0.39500
O4104       O  0.12699446  0.70560872  0.56808146    -0.39500
O4105       O  0.09646797  0.75664144  0.65318240    -0.40200
O4106       O  0.09687170  0.72674900  0.66087671    -0.40200
C4107       C  0.21001421  0.66396285  0.59011603    -0.12500
C4108       C  0.22272826  0.66107680  0.60573533     0.04500
C4109       C  0.23421303  0.64395554  0.60571262    -0.07800
C4110       C  0.22962912  0.62883648  0.59326093    -0.08600
C4111       C  0.21406285  0.63050104  0.58061385    -0.03100
C4112       C  0.20572565  0.64873227  0.57745859     0.03700
N4113       N  0.19148965  0.65128599  0.56271943     0.66200
H4114       H  0.20174766  0.67725145  0.58893424     0.15100
H4115       H  0.23705061  0.61514551  0.59496448     0.14800
N4116       N  0.24961468  0.64082118  0.61906120     0.73900
O4117       O  0.17397037  0.65408686  0.56741379    -0.39500
O4118       O  0.19547604  0.64601491  0.54569875    -0.39500
O4119       O  0.24723225  0.62863997  0.63191231    -0.40200
O4120       O  0.26667934  0.64374400  0.61345141    -0.40200
C4121       C  0.12554828  0.62551387  0.72718522    -0.12500
C4122       C  0.14091990  0.62205494  0.71442205     0.04500
C4123       C  0.14183827  0.60433269  0.70431329    -0.07800
C4124       C  0.12597028  0.59230307  0.70438039    -0.08600
C4125       C  0.10900009  0.59736105  0.71445990    -0.03100
C4126       C  0.10961808  0.61322681  0.72744586     0.03700
N4127       N  0.09405421  0.61802433  0.74015690     0.66200
H4128       H  0.12488957  0.63879634  0.73553039     0.15100
H4129       H  0.12618612  0.57978818  0.69486382     0.14800
N4130       N  0.15797926  0.59897481  0.69244273     0.73900
O4131       O  0.08538698  0.63388507  0.73791068    -0.39500
O4132       O  0.09484573  0.61137631  0.75684918    -0.39500
O4133       O  0.16984582  0.58656173  0.69861363    -0.40200
O4134       O  0.15631686  0.60081487  0.67453834    -0.40200
C4135       C  0.11015001  0.69669063  0.73688908    -0.12500
C4136       C  0.12367803  0.71105700  0.73990803     0.04500
C4137       C  0.11678766  0.72972178  0.74486122    -0.07800
C4138       C  0.09698901  0.73424200  0.74358832    -0.08600
C4139       C  0.08361595  0.72046718  0.73763457    -0.03100
C4140       C  0.09032321  0.70114488  0.73554009     0.03700
N4141       N  0.07760369  0.68573298  0.73143597     0.66200
H4142       H  0.11505264  0.68217999  0.73337615     0.15100
H4143       H  0.09228945  0.74892815  0.74643332     0.14800
N4144       N  0.12968146  0.74457994  0.75043468     0.73900
O4145       O  0.07772904  0.67851896  0.71467059    -0.39500
O4146       O  0.07266619  0.67538359  0.74515166    -0.39500
O4147       O  0.13380463  0.75701755  0.73830671    -0.40200
O4148       O  0.13094670  0.74894522  0.76806303    -0.40200
C4149       C  0.24423638  0.61960981  0.71897249    -0.12500
C4150       C  0.22605941  0.62624328  0.72588389     0.04500
C4151       C  0.21627682  0.61485585  0.73921607    -0.07800
C4152       C  0.22361655  0.59660607  0.74332254    -0.08600
C4153       C  0.24033459  0.58903687  0.73425824    -0.03100
C4154       C  0.25139720  0.60119799  0.72292873     0.03700
N4155       N  0.26896732  0.59481774  0.71385910     0.66200
H4156       H  0.25244143  0.62826120  0.70926311     0.15100
H4157       H  0.21524636  0.58764150  0.75261831     0.14800
N4158       N  0.19816347  0.62060783  0.74767828     0.73900
O4159       O  0.26825628  0.58935679  0.69649162    -0.39500
O4160       O  0.28475836  0.60110825  0.72038538    -0.39500
O4161       O  0.18297335  0.61253051  0.74180460    -0.40200
O4162       O  0.19835464  0.62761290  0.76452665    -0.40200
C4163       C  0.23749653  0.73544036  0.62484871    -0.12500
C4164       C  0.22597588  0.74910398  0.63469451     0.04500
C4165       C  0.21767272  0.76443818  0.62432520    -0.07800
C4166       C  0.22018449  0.76521968  0.60444107    -0.08600
C4167       C  0.22997393  0.75047220  0.59437062    -0.03100
C4168       C  0.23919930  0.73568780  0.60483546     0.03700
N4169       N  0.25000025  0.72050009  0.59555499     0.66200
H4170       H  0.24368885  0.72339444  0.63246104     0.15100
H4171       H  0.21331978  0.77682811  0.59668353     0.14800
N4172       N  0.20563798  0.77879737  0.63340166     0.73900
O4173       O  0.26828535  0.72114494  0.59587426    -0.39500
O4174       O  0.24217793  0.70439133  0.59365452    -0.39500
O4175       O  0.21239580  0.79533961  0.63577655    -0.40200
O4176       O  0.18746975  0.77707593  0.63233342    -0.40200
C4177       C  0.46294312  0.86236681  0.25524256    -0.12500
C4178       C  0.44978774  0.87101806  0.24259076     0.04500
C4179       C  0.44238796  0.85960243  0.22726874    -0.07800
C4180       C  0.44750818  0.84000587  0.22547735    -0.08600
C4181       C  0.45926303  0.83111237  0.23919907    -0.03100
C4182       C  0.46741942  0.84268157  0.25395239     0.03700
N4183       N  0.47978818  0.83469152  0.26828576     0.66200
H4184       H  0.46833188  0.87056489  0.26745931     0.15100
H4185       H  0.44108260  0.83142858  0.21407170     0.14800
N4186       N  0.42833718  0.86711637  0.21426882     0.73900
O4187       O  0.49787035  0.83663248  0.26665111    -0.39500
O4188       O  0.47283892  0.83205305  0.28474529    -0.39500
O4189       O  0.43371909  0.87077843  0.19746425    -0.40200
O4190       O  0.41070985  0.86360112  0.21710854    -0.40200
C4191       C  0.33383707  0.98962686  0.23926672    -0.12500
C4192       C  0.34023884  0.99174025  0.25838313     0.04500
C4193       C  0.32598357  0.99483618  0.27275349    -0.07800
C4194       C  0.30629180  0.99340984  0.26819948    -0.08600
C4195       C  0.29998158  0.98916384  0.24947530    -0.03100
C4196       C  0.31404167  0.98832175  0.23467792     0.03700
N4197       N  0.30892866  0.98502527  0.21505756     0.66200
H4198       H  0.34434123  0.98764528  0.22778798     0.15100
H4199       H  0.29581536  0.99510329  0.27974431     0.14800
N4200       N  0.33087046  0.99793854  0.29240474     0.73900
O4201       O  0.30877239  0.99911971  0.20402621    -0.39500
O4202       O  0.31173358  0.96845742  0.20787983    -0.39500
O4203       O  0.32896005  0.01472171  0.29931922    -0.40200
O4204       O  0.32935652  0.98402550  0.30349761    -0.40200
C4205       C  0.42969321  0.00791743  0.35559939    -0.12500
C4206       C  0.43912809  0.99105449  0.34884641     0.04500
C4207       C  0.45524118  0.98408309  0.35964821    -0.07800
C4208       C  0.46012089  0.99271333  0.37726317    -0.08600
C4209       C  0.44949693  0.00830837  0.38493359    -0.03100
C4210       C  0.43455935  0.01645276  0.37351516     0.03700
N4211       N  0.42315593  0.03246478  0.38026565     0.66200
H4212       H  0.41741255  0.01369575  0.34771872     0.15100
H4213       H  0.47191521  0.98647664  0.38553407     0.14800
N4214       N  0.46660344  0.96774373  0.35355750     0.73900
O4215       O  0.42708847  0.04879746  0.37414144    -0.39500
O4216       O  0.40618748  0.02959193  0.38619239    -0.39500
O4217       O  0.48298812  0.97048906  0.34614724    -0.40200
O4218       O  0.46379127  0.95203171  0.36161945    -0.40200
C4219       C  0.35420372  0.98360825  0.38213467    -0.12500
C4220       C  0.33425430  0.98782929  0.38181704     0.04500
C4221       C  0.32676518  0.99750220  0.36568617    -0.07800
C4222       C  0.33768426  0.99706533  0.34850741    -0.08600
C4223       C  0.35670839  0.98941792  0.34810299    -0.03100
C4224       C  0.36546076  0.98448952  0.36563216     0.03700
N4225       N  0.38500282  0.97743855  0.36655155     0.66200
H4226       H  0.36070050  0.97728521  0.39472886     0.15100
H4227       H  0.33124841  0.00235482  0.33546063     0.14800
N4228       N  0.30954921  0.00928695  0.36708835     0.73900
O4229       O  0.38794812  0.95960264  0.36733253    -0.39500
O4230       O  0.39755256  0.98833244  0.37373570    -0.39500
O4231       O  0.30654782  0.01905124  0.38229688    -0.40200
O4232       O  0.30033381  0.01372030  0.35207900    -0.40200
C4233       C  0.24248659  0.86214658  0.48212507    -0.12500
C4234       C  0.25041945  0.87559304  0.49480376     0.04500
C4235       C  0.25831317  0.86924520  0.51220224    -0.07800
C4236       C  0.25942195  0.84942350  0.51605031    -0.08600
C4237       C  0.25357078  0.83569576  0.50209204    -0.03100
C4238       C  0.24470754  0.84250210  0.48507241     0.03700
N4239       N  0.23909870  0.82997506  0.46969573     0.66200
H4240       H  0.23706665  0.86681847  0.46832060     0.15100
H4241       H  0.26599775  0.84474167  0.52933052     0.14800
N4242       N  0.26711511  0.88287972  0.52488070     0.73900
O4243       O  0.22120005  0.82755737  0.46697567    -0.39500
O4244       O  0.25031984  0.82837091  0.45542285    -0.39500
O4245       O  0.28433088  0.88765279  0.52156359    -0.40200
O4246       O  0.25618830  0.89450700  0.53408675    -0.40200
C4247       C  0.22244298  0.96252234  0.37102145    -0.12500
C4248       C  0.24017159  0.97087621  0.37590486     0.04500
C4249       C  0.24874975  0.98293404  0.36265398    -0.07800
C4250       C  0.24041954  0.98539889  0.34442428    -0.08600
C4251       C  0.22327501  0.97599842  0.33893677    -0.03100
C4252       C  0.21390523  0.96496308  0.35287159     0.03700
N4253       N  0.19678444  0.95456247  0.34862784     0.66200
H4254       H  0.21567424  0.95302343  0.38100817     0.15100
H4255       H  0.24796551  0.99395777  0.33411477     0.14800
N4256       N  0.26715564  0.99087179  0.36682148     0.73900
O4257       O  0.19869974  0.93702947  0.34412168    -0.39500
O4258       O  0.18114739  0.96025476  0.35647607    -0.39500
O4259       O  0.28195494  0.97994904  0.36572968    -0.40200
O4260       O  0.26769353  0.00575543  0.37739046    -0.40200
C4261       C  0.35542071  0.99318414  0.44080149    -0.12500
C4262       C  0.34333201  0.99752244  0.45662773     0.04500
C4263       C  0.35207469  0.00297189  0.47421449    -0.07800
C4264       C  0.37217800  0.00363597  0.47567110    -0.08600
C4265       C  0.38431955  0.99915651  0.45999736    -0.03100
C4266       C  0.37571834  0.99376996  0.44235489     0.03700
N4267       N  0.38710674  0.98928257  0.42573561     0.66200
H4268       H  0.34914804  0.98843138  0.42730530     0.15100
H4269       H  0.37833669  0.00782806  0.48943523     0.14800
N4270       N  0.34101403  0.00785518  0.49098192     0.73900
O4271       O  0.38981461  0.97191004  0.42093619    -0.39500
O4272       O  0.38860107  0.00185445  0.41313096    -0.39500
O4273       O  0.34079107  0.99596983  0.50435267    -0.40200
O4274       O  0.33848747  0.02538069  0.49523043    -0.40200
C4275       C  0.40974574  0.87549766  0.37235555    -0.12500
C4276       C  0.42794772  0.87717890  0.38104141     0.04500
C4277       C  0.44420749  0.88111191  0.36965282    -0.07800
C4278       C  0.44205866  0.88270794  0.34993391    -0.08600
C4279       C  0.42380410  0.88126140  0.34113178    -0.03100
C4280       C  0.40749143  0.87750321  0.35262378     0.03700
N4281       N  0.38841523  0.87601601  0.34489307     0.66200
H4282       H  0.39720945  0.87176667  0.38079079     0.15100
H4283       H  0.45476874  0.88603572  0.34156925     0.14800
N4284       N  0.46291672  0.88432309  0.37780513     0.73900
O4285       O  0.38230766  0.85953349  0.34078329    -0.39500
O4286       O  0.37618069  0.88906553  0.34917695    -0.39500
O4287       O  0.47607196  0.87172211  0.37514616    -0.40200
O4288       O  0.46781547  0.90140110  0.38106264    -0.40200
C4289       C  0.35808258  0.86460500  0.50548025    -0.12500
C4290       C  0.37591304  0.87125517  0.49918608     0.04500
C4291       C  0.37918093  0.89118021  0.50011175    -0.07800
C4292       C  0.36349352  0.90390126  0.50268149    -0.08600
C4293       C  0.34465789  0.89690042  0.50337650    -0.03100
C4294       C  0.34230079  0.87730881  0.50750491     0.03700
N4295       N  0.32378424  0.86968192  0.51181325     0.66200
H4296       H  0.35553336  0.84936128  0.50605362     0.15100
H4297       H  0.36584029  0.91903342  0.50069674     0.14800
N4298       N  0.39783660  0.89886085  0.49658514     0.73900
O4299       O  0.31983590  0.86695469  0.52920822    -0.39500
O4300       O  0.31532590  0.85972065  0.49912981    -0.39500
O4301       O  0.40102218  0.90618274  0.48051673    -0.40200
O4302       O  0.40771007  0.90430867  0.51087418    -0.40200
C4303       C  0.45582328  0.75198694  0.36572735    -0.12500
C4304       C  0.46214765  0.77016736  0.37193988     0.04500
C4305       C  0.47427924  0.78015033  0.35904351    -0.07800
C4306       C  0.47693735  0.77354012  0.34009045    -0.08600
C4307       C  0.46841167  0.75680651  0.33334996    -0.03100
C4308       C  0.45851537  0.74549060  0.34647809     0.03700
N4309       N  0.44994310  0.72811596  0.33988197     0.66200
H4310       H  0.44789131  0.74334377  0.37549160     0.15100
H4311       H  0.48550291  0.78186980  0.33038535     0.14800
N4312       N  0.48414175  0.79718486  0.36459236     0.73900
O4313       O  0.46032390  0.71302715  0.33936963    -0.39500
O4314       O  0.43518989  0.72912009  0.32914869    -0.39500
O4315       O  0.50197313  0.79568906  0.36860950    -0.40200
O4316       O  0.47778408  0.81290983  0.35828134    -0.40200
C4317       C  0.37165240  0.75722949  0.49458212    -0.12500
C4318       C  0.37538399  0.75721709  0.47484929     0.04500
C4319       C  0.35981555  0.75356987  0.46225206    -0.07800
C4320       C  0.34073027  0.75293076  0.46913600    -0.08600
C4321       C  0.33680301  0.75471855  0.48881933    -0.03100
C4322       C  0.35274512  0.75565784  0.50166861     0.03700
N4323       N  0.35027301  0.75607066  0.52197474     0.66200
H4324       H  0.38339048  0.75963320  0.50467199     0.15100
H4325       H  0.32889599  0.75130072  0.45897832     0.14800
N4326       N  0.36275861  0.75352884  0.44219380     0.73900
O4327       O  0.35425516  0.74094409  0.53087742    -0.39500
O4328       O  0.35185202  0.77193811  0.53078716    -0.39500
O4329       O  0.36142605  0.76936933  0.43399412    -0.40200
O4330       O  0.37190156  0.73966710  0.43423833    -0.40200
C4331       C  0.47073564  0.92307680  0.46004488    -0.12500
C4332       C  0.46613609  0.93132430  0.47800855     0.04500
C4333       C  0.46197693  0.91899225  0.49330282    -0.07800
C4334       C  0.46019671  0.89919459  0.48965429    -0.08600
C4335       C  0.46304780  0.89137962  0.47115960    -0.03100
C4336       C  0.46923250  0.90346241  0.45649606     0.03700
N4337       N  0.47259717  0.89639838  0.43738002     0.66200
H4338       H  0.47479314  0.93206840  0.44826730     0.15100
H4339       H  0.45509367  0.89017132  0.50098572     0.14800
N4340       N  0.45832337  0.92617349  0.51229508     0.73900
O4341       O  0.45938627  0.89873573  0.42503602    -0.39500
O4342       O  0.48992612  0.89444155  0.43171581    -0.39500
O4343       O  0.44094691  0.92834393  0.51772823    -0.40200
O4344       O  0.47135781  0.92381866  0.52481655    -0.40200
C4345       C  0.37296032  0.74431887  0.35642542    -0.12500
C4346       C  0.35256792  0.74393865  0.35844289     0.04500
C4347       C  0.34545282  0.74220388  0.37721344    -0.07800
C4348       C  0.35653206  0.74961004  0.39245079    -0.08600
C4349       C  0.37615351  0.75370909  0.38968032    -0.03100
C4350       C  0.38475304  0.74822136  0.37229587     0.03700
N4351       N  0.40529119  0.74818604  0.37045540     0.66200
H4352       H  0.37989950  0.74322696  0.34267694     0.15100
H4353       H  0.34969399  0.75222704  0.40615022     0.14800
N4354       N  0.32750012  0.73285374  0.38083890     0.73900
O4355       O  0.41350303  0.76367443  0.36682113    -0.39500
O4356       O  0.41479052  0.73509402  0.37869473    -0.39500
O4357       O  0.32149135  0.72050315  0.36886815    -0.40200
O4358       O  0.32050584  0.73313701  0.39758901    -0.40200
C4359       C  0.26229433  0.86143428  0.36918108    -0.12500
C4360       C  0.28063479  0.86057529  0.36048083     0.04500
C4361       C  0.29729168  0.86396364  0.37170713    -0.07800
C4362       C  0.29527004  0.86781364  0.39125549    -0.08600
C4363       C  0.27691452  0.86853173  0.39992046    -0.03100
C4364       C  0.26031396  0.86486240  0.38873462     0.03700
N4365       N  0.24129671  0.86446118  0.39681658     0.66200
H4366       H  0.24932477  0.85846753  0.36087501     0.15100
H4367       H  0.30820170  0.87111405  0.39947543     0.14800
N4368       N  0.31642694  0.86301865  0.36391677     0.73900
O4369       O  0.22983304  0.87840176  0.39386998    -0.39500
O4370       O  0.23422033  0.84837553  0.40027324    -0.39500
O4371       O  0.32448122  0.87851188  0.35999103    -0.40200
O4372       O  0.32704512  0.84870294  0.36777997    -0.40200
C4373       C  0.36048397  0.86341569  0.23013116    -0.12500
C4374       C  0.35213016  0.88151607  0.23398258     0.04500
C4375       C  0.33175467  0.88308891  0.23579563    -0.07800
C4376       C  0.32126223  0.86660997  0.23895639    -0.08600
C4377       C  0.33093095  0.84892325  0.24066443    -0.03100
C4378       C  0.35007230  0.84694170  0.23361092     0.03700
N4379       N  0.36018029  0.82892433  0.23258617     0.66200
H4380       H  0.37593438  0.86199212  0.22767235     0.15100
H4381       H  0.30614499  0.86813803  0.24316485     0.14800
N4382       N  0.32186010  0.90112190  0.23800784     0.73900
O4383       O  0.37167753  0.82470454  0.24603113    -0.39500
O4384       O  0.36310810  0.82138731  0.21618920    -0.39500
O4385       O  0.31183236  0.90701854  0.22407796    -0.40200
O4386       O  0.31730427  0.90681770  0.25474315    -0.40200
C4387       C  0.35701261  0.74688740  0.25313312    -0.12500
C4388       C  0.35276548  0.74474308  0.27267787     0.04500
C4389       C  0.36855808  0.74340666  0.28551244    -0.07800
C4390       C  0.38752937  0.74611507  0.27932591    -0.08600
C4391       C  0.39162319  0.74932411  0.26016509    -0.03100
C4392       C  0.37616960  0.74892365  0.24676593     0.03700
N4393       N  0.37936021  0.75108867  0.22672822     0.66200
H4394       H  0.34533642  0.74774433  0.24272620     0.15100
H4395       H  0.39924682  0.74558248  0.28974462     0.14800
N4396       N  0.36578067  0.74184935  0.30543768     0.73900
O4397       O  0.37971942  0.73621246  0.21612676    -0.39500
O4398       O  0.37479589  0.76690194  0.21935664    -0.39500
O4399       O  0.37010315  0.72608003  0.31303772    -0.40200
O4400       O  0.36724569  0.75712742  0.31517136    -0.40200
C4401       C  0.26451788  0.74055742  0.38467657    -0.12500
C4402       C  0.27817254  0.75446195  0.38065876     0.04500
C4403       C  0.28828528  0.76303296  0.39612189    -0.07800
C4404       C  0.28449119  0.75789269  0.41504568    -0.08600
C4405       C  0.26995805  0.74478645  0.41943706    -0.03100
C4406       C  0.26021611  0.73571841  0.40379620     0.03700
N4407       N  0.24479819  0.72281961  0.40672835     0.66200
H4408       H  0.25618186  0.73432854  0.37300253     0.15100
H4409       H  0.29253065  0.76491295  0.42649404     0.14800
N4410       N  0.30158869  0.77804917  0.39285146     0.73900
O4411       O  0.22760830  0.72933122  0.40582029    -0.39500
O4412       O  0.24788865  0.70530216  0.40281732    -0.39500
O4413       O  0.29581800  0.79522807  0.39475526    -0.40200
O4414       O  0.31738196  0.77436434  0.38432368    -0.40200
C4415       C  0.23940564  0.87616338  0.28731174    -0.12500
C4416       C  0.24354956  0.86344817  0.27188056     0.04500
C4417       C  0.24063160  0.87000998  0.25304206    -0.07800
C4418       C  0.23456442  0.88909924  0.25013331    -0.08600
C4419       C  0.23209635  0.90216279  0.26562547    -0.03100
C4420       C  0.23411792  0.89532519  0.28443003     0.03700
N4421       N  0.23083091  0.90744928  0.30090536     0.66200
H4422       H  0.24170774  0.87150360  0.30191482     0.15100
H4423       H  0.23281257  0.89401762  0.23556549     0.14800
N4424       N  0.24515144  0.85819856  0.23664632     0.73900
O4425       O  0.21467281  0.90664988  0.30931972    -0.39500
O4426       O  0.24533417  0.91317762  0.31033452    -0.39500
O4427       O  0.23130807  0.85139033  0.22697495    -0.40200
O4428       O  0.26131823  0.86021453  0.22852609    -0.40200
C4429       C  0.63618643  0.00178511  0.71382894    -0.12500
C4430       C  0.64428561  0.01326607  0.72828568     0.04500
C4431       C  0.63172265  0.02437364  0.74011228    -0.07800
C4432       C  0.61166556  0.02572776  0.73573686    -0.08600
C4433       C  0.60369851  0.01574933  0.71981993    -0.03100
C4434       C  0.61615656  0.00250924  0.70988943     0.03700
N4435       N  0.60889372  0.98941362  0.69579566     0.66200
H4436       H  0.64550333  0.99208349  0.70548765     0.15100
H4437       H  0.60246770  0.03558192  0.74395295     0.14800
N4438       N  0.63952506  0.03505610  0.75594325     0.73900
O4439       O  0.61276731  0.99221869  0.67844003    -0.39500
O4440       O  0.60600140  0.97246572  0.70083760    -0.39500
O4441       O  0.64986304  0.04930891  0.75256180    -0.40200
O4442       O  0.64152520  0.02685935  0.77180979    -0.40200
C4443       C  0.46440297  0.15288238  0.71082686    -0.12500
C4444       C  0.47714767  0.16713213  0.70484893     0.04500
C4445       C  0.49228413  0.16125537  0.69210456    -0.07800
C4446       C  0.49444997  0.14199447  0.68614655    -0.08600
C4447       C  0.48262472  0.12765072  0.69311650    -0.03100
C4448       C  0.46732159  0.13336166  0.70562613     0.03700
N4449       N  0.45519294  0.11965041  0.71418184     0.66200
H4450       H  0.45271219  0.15665743  0.72067247     0.15100
H4451       H  0.50664578  0.13797193  0.67702782     0.14800
N4452       N  0.50638275  0.17423284  0.68557685     0.73900
O4453       O  0.45914848  0.11444256  0.73099607    -0.39500
O4454       O  0.43793170  0.11838983  0.70827896    -0.39500
O4455       O  0.52278475  0.17417310  0.69367747    -0.40200
O4456       O  0.50515058  0.17967932  0.66847616    -0.40200
C4457       C  0.50291467  0.04848023  0.58762246    -0.12500
C4458       C  0.49355584  0.03592106  0.59980722     0.04500
C4459       C  0.48391069  0.02017684  0.59139285    -0.07800
C4460       C  0.48375802  0.01753449  0.57129903    -0.08600
C4461       C  0.49366454  0.02985583  0.55911155    -0.03100
C4462       C  0.50347650  0.04546142  0.56770007     0.03700
N4463       N  0.51538278  0.05770623  0.55686603     0.66200
H4464       H  0.51122717  0.06013424  0.59373795     0.15100
H4465       H  0.47580523  0.00561398  0.56523548     0.14800
N4466       N  0.47396044  0.00677841  0.60275198     0.73900
O4467       O  0.50876437  0.07414851  0.55310043    -0.39500
O4468       O  0.53356114  0.05522764  0.55775636    -0.39500
O4469       O  0.45588656  0.00912749  0.60496507    -0.40200
O4470       O  0.48120442  0.99013395  0.60419848    -0.40200
C4471       C  0.62596180  0.01129268  0.64477594    -0.12500
C4472       C  0.60719714  0.01009618  0.63725015     0.04500
C4473       C  0.60413894  0.99714803  0.62145708    -0.07800
C4474       C  0.62010075  0.98991824  0.61109132    -0.08600
C4475       C  0.63873219  0.99588496  0.61593106    -0.03100
C4476       C  0.64156500  0.00276748  0.63495081     0.03700
N4477       N  0.66022556  0.00266002  0.64386754     0.66200
H4478       H  0.62869839  0.01927255  0.65798838     0.15100
H4479       H  0.61757503  0.98263558  0.59743466     0.14800
N4480       N  0.58527644  0.99222190  0.61465860     0.73900
O4481       O  0.66879913  0.01831261  0.64624254    -0.39500
O4482       O  0.66432163  0.98915278  0.65500870    -0.39500
O4483       O  0.57891559  0.00006028  0.59968994    -0.40200
O4484       O  0.57879318  0.97611440  0.61900538    -0.40200
C4485       C  0.73230199  0.99684287  0.63892545    -0.12500
C4486       C  0.74054018  0.01244555  0.64855685     0.04500
C4487       C  0.74681617  0.02799077  0.63768912    -0.07800
C4488       C  0.74289955  0.02843516  0.61787792    -0.08600
C4489       C  0.73214065  0.01400051  0.60874700    -0.03100
C4490       C  0.72812203  0.99744140  0.61925659     0.03700
N4491       N  0.71776153  0.98193279  0.61078339     0.66200
H4492       H  0.72787737  0.98455704  0.64697926     0.15100
H4493       H  0.74576436  0.04147836  0.61029306     0.14800
N4494       N  0.75531409  0.04435720  0.64664314     0.73900
O4495       O  0.72728554  0.96716132  0.60540359    -0.39500
O4496       O  0.69999986  0.98038382  0.61473119    -0.39500
O4497       O  0.77334920  0.04653388  0.64485221    -0.40200
O4498       O  0.74462933  0.05890557  0.65011208    -0.40200
C4499       C  0.70495841  0.15483515  0.50237894    -0.12500
C4500       C  0.69060583  0.16895573  0.50630128     0.04500
C4501       C  0.67218062  0.16287630  0.51258654    -0.07800
C4502       C  0.66918308  0.14345133  0.51615912    -0.08600
C4503       C  0.68404702  0.12969832  0.51359328    -0.03100
C4504       C  0.70195814  0.13550102  0.50618284     0.03700
N4505       N  0.71765629  0.12218612  0.50311645     0.66200
H4506       H  0.71913128  0.15889378  0.49732126     0.15100
H4507       H  0.65546830  0.13929019  0.52223260     0.14800
N4508       N  0.65628681  0.17597635  0.51571673     0.73900
O4509       O  0.72099313  0.11621837  0.48619167    -0.39500
O4510       O  0.73132668  0.12189551  0.51518584    -0.39500
O4511       O  0.64299203  0.17653611  0.50324213    -0.40200
O4512       O  0.65213993  0.18084105  0.53278976    -0.40200
C4513       C  0.59651324  0.04004297  0.48724015    -0.12500
C4514       C  0.59885998  0.03928734  0.50713041     0.04500
C4515       C  0.58211141  0.03870517  0.51877038    -0.07800
C4516       C  0.56355110  0.03949901  0.51053512    -0.08600
C4517       C  0.56107792  0.03958470  0.49052979    -0.03100
C4518       C  0.57794305  0.03958867  0.47883217     0.03700
N4519       N  0.57679065  0.03922471  0.45840239     0.66200
H4520       H  0.60920605  0.04034387  0.47809201     0.15100
H4521       H  0.55097850  0.03900801  0.51984815     0.14800
N4522       N  0.58381511  0.03679511  0.53905390     0.73900
O4523       O  0.57974393  0.05459714  0.44978382    -0.39500
O4524       O  0.58036870  0.02354251  0.44965375    -0.39500
O4525       O  0.59100647  0.05026353  0.54882244    -0.40200
O4526       O  0.58371431  0.02025082  0.54596045    -0.40200
C4527       C  0.62152203  0.11615996  0.74286258    -0.12500
C4528       C  0.61376753  0.13512336  0.74329728     0.04500
C4529       C  0.59347941  0.13765660  0.74133808    -0.07800
C4530       C  0.58260051  0.12253653  0.73444433    -0.08600
C4531       C  0.59137122  0.10485638  0.72964988    -0.03100
C4532       C  0.61037863  0.10107820  0.73560435     0.03700
N4533       N  0.61802617  0.08198525  0.73473971     0.66200
H4534       H  0.63676189  0.11341048  0.74583471     0.15100
H4535       H  0.56746944  0.12537376  0.73110129     0.14800
N4536       N  0.58378380  0.15579991  0.74368584     0.73900
O4537       O  0.62680377  0.07610233  0.71979372    -0.39500
O4538       O  0.61084977  0.06994471  0.74577914    -0.39500
O4539       O  0.57847791  0.16441847  0.72876215    -0.40200
O4540       O  0.57427061  0.15887488  0.75894612    -0.40200
C4541       C  0.69696584  0.08434410  0.64904067    -0.12500
C4542       C  0.70701478  0.08985193  0.63258985     0.04500
C4543       C  0.71752711  0.10692831  0.63343316    -0.07800
C4544       C  0.71407096  0.11994404  0.64847313    -0.08600
C4545       C  0.69971298  0.11645699  0.66212963    -0.03100
C4546       C  0.69275240  0.09768430  0.66364724     0.03700
N4547       N  0.67972285  0.09233930  0.67841996     0.66200
H4548       H  0.68976497  0.07069919  0.64938496     0.15100
H4549       H  0.72090716  0.13377835  0.64807146     0.14800
N4550       N  0.73078539  0.11194382  0.61875485     0.73900
O4551       O  0.66181572  0.09195613  0.67464108    -0.39500
O4552       O  0.68625011  0.08189071  0.69159682    -0.39500
O4553       O  0.72558774  0.12455498  0.60700044    -0.40200
O4554       O  0.74868019  0.10942684  0.62194118    -0.40200
C4555       C  0.72175083  0.12028968  0.71185295    -0.12500
C4556       C  0.71131535  0.12842746  0.72742997     0.04500
C4557       C  0.70673486  0.11634626  0.74279649    -0.07800
C4558       C  0.71080046  0.09665694  0.74153859    -0.08600
C4559       C  0.71992692  0.08821550  0.72546166    -0.03100
C4560       C  0.72657274  0.10048488  0.71101245     0.03700
N4561       N  0.73940929  0.09360551  0.69626795     0.66200
H4562       H  0.72554546  0.12915728  0.69990330     0.15100
H4563       H  0.70668819  0.08779158  0.75340397     0.14800
N4564       N  0.69758976  0.12370742  0.75986824     0.73900
O4565       O  0.73260167  0.08989837  0.67983616    -0.39500
O4566       O  0.75717329  0.09744197  0.69776588    -0.39500
O4567       O  0.67986396  0.12036999  0.76245381    -0.40200
O4568       O  0.70812750  0.12707355  0.77433949    -0.40200
C4569       C  0.68895721  0.25118986  0.59410471    -0.12500
C4570       C  0.70646259  0.24249095  0.58787776     0.04500
C4571       C  0.71743071  0.23178666  0.60113982    -0.07800
C4572       C  0.70983996  0.22856895  0.61942386    -0.08600
C4573       C  0.69132972  0.23558118  0.62497616    -0.03100
C4574       C  0.68135036  0.24796185  0.61239734     0.03700
N4575       N  0.66285600  0.25629622  0.61704635     0.66200
H4576       H  0.68051476  0.25983386  0.58425047     0.15100
H4577       H  0.71795699  0.21923010  0.62889523     0.14800
N4578       N  0.73532394  0.22243998  0.59594971     0.73900
O4579       O  0.66216249  0.27372335  0.62220523    -0.39500
O4580       O  0.64805333  0.24919099  0.60923445    -0.39500
O4581       O  0.75083750  0.22914982  0.60269598    -0.40200
O4582       O  0.73505699  0.20493600  0.59108897    -0.40200
C4583       C  0.59206853  0.25712756  0.73716422    -0.12500
C4584       C  0.59854376  0.25532051  0.71815552     0.04500
C4585       C  0.58519257  0.25935501  0.70340460    -0.07800
C4586       C  0.56528920  0.26227008  0.70762291    -0.08600
C4587       C  0.55847365  0.26203097  0.72669540    -0.03100
C4588       C  0.57238984  0.26036196  0.74156913     0.03700
N4589       N  0.56684191  0.25945611  0.76121929     0.66200
H4590       H  0.60206596  0.25398535  0.74876460     0.15100
H4591       H  0.55501665  0.26369004  0.69591172     0.14800
N4592       N  0.59138307  0.25790382  0.68395780     0.73900
O4593       O  0.56531553  0.24312999  0.76841632    -0.39500
O4594       O  0.57094001  0.27341282  0.77218676    -0.39500
O4595       O  0.59172907  0.24156975  0.67586826    -0.40200
O4596       O  0.60210791  0.27077521  0.67762729    -0.40200
C4597       C  0.47809544  0.10344723  0.59967585    -0.12500
C4598       C  0.48393015  0.11217744  0.61695029     0.04500
C4599       C  0.47924784  0.13162889  0.62038741    -0.07800
C4600       C  0.47120400  0.14246412  0.60574588    -0.08600
C4601       C  0.46959725  0.13474272  0.58707697    -0.03100
C4602       C  0.47085214  0.11458963  0.58468346     0.03700
N4603       N  0.46490131  0.10518928  0.56733236     0.66200
H4604       H  0.48048279  0.08818934  0.59729000     0.15100
H4605       H  0.46932348  0.15770161  0.60844255     0.14800
N4606       N  0.48392757  0.14117348  0.63801529     0.73900
O4607       O  0.47767624  0.09972583  0.55540875    -0.39500
O4608       O  0.44890997  0.09669789  0.56728910    -0.39500
O4609       O  0.49908329  0.15100981  0.63861517    -0.40200
O4610       O  0.47020425  0.14557094  0.64935119    -0.40200
C4611       C  0.58317704  0.24112781  0.60807073    -0.12500
C4612       C  0.58651317  0.22582855  0.59516159     0.04500
C4613       C  0.60436344  0.21557376  0.59607625    -0.07800
C4614       C  0.61694189  0.21890591  0.61136674    -0.08600
C4615       C  0.61171332  0.23144347  0.62650272    -0.03100
C4616       C  0.59552974  0.24396087  0.62389213     0.03700
N4617       N  0.59092804  0.25929479  0.63700011     0.66200
H4618       H  0.56995953  0.24973199  0.60699509     0.15100
H4619       H  0.62961386  0.20954223  0.61278028     0.14800
N4620       N  0.60920510  0.20029381  0.58289418     0.73900
O4621       O  0.59788320  0.27546058  0.63365587    -0.39500
O4622       O  0.57500595  0.25879339  0.64587223    -0.39500
O4623       O  0.62220333  0.20305273  0.57057114    -0.40200
O4624       O  0.60635922  0.18337580  0.58804796    -0.40200
C4625       C  0.58135377  0.12359765  0.50127959    -0.12500
C4626       C  0.56406878  0.12041530  0.51132002     0.04500
C4627       C  0.56290851  0.10352686  0.52208028    -0.07800
C4628       C  0.57950276  0.09248888  0.52523903    -0.08600
C4629       C  0.59749907  0.09779080  0.51820570    -0.03100
C4630       C  0.59810289  0.11252909  0.50468316     0.03700
N4631       N  0.61562541  0.11768675  0.49544293     0.66200
H4632       H  0.58254466  0.13586159  0.49211835     0.15100
H4633       H  0.57843275  0.08048842  0.53468673     0.14800
N4634       N  0.54557028  0.09766290  0.53111799     0.73900
O4635       O  0.61785485  0.11278762  0.47802982    -0.39500
O4636       O  0.62441397  0.13217146  0.50179436    -0.39500
O4637       O  0.53738936  0.08318387  0.52398373    -0.40200
O4638       O  0.54372658  0.10105606  0.54890046    -0.40200
C4639       C  0.59099395  0.23837491  0.49380140    -0.12500
C4640       C  0.58537297  0.24152178  0.51300681     0.04500
C4641       C  0.59850661  0.25031116  0.52580472    -0.07800
C4642       C  0.61753247  0.25320155  0.51993650    -0.08600
C4643       C  0.62389672  0.24747304  0.50153686    -0.03100
C4644       C  0.61012298  0.24116886  0.48796130     0.03700
N4645       N  0.61548958  0.23542510  0.46890430     0.66200
H4646       H  0.58097548  0.23188337  0.48368226     0.15100
H4647       H  0.62778084  0.25881821  0.53036034     0.14800
N4648       N  0.59374077  0.25432137  0.54541833     0.73900
O4649       O  0.61954655  0.21797416  0.46556481    -0.39500
O4650       O  0.60962595  0.24559494  0.45522560    -0.39500
O4651       O  0.60005759  0.24297936  0.55792001    -0.40200
O4652       O  0.58988901  0.27144868  0.55040857    -0.40200
C4653       C  0.48517314  0.25401353  0.64199205    -0.12500
C4654       C  0.49754589  0.24568013  0.65569554     0.04500
C4655       C  0.51464828  0.23602836  0.64886108    -0.07800
C4656       C  0.51813719  0.23409927  0.62899321    -0.08600
C4657       C  0.50490349  0.24121998  0.61547564    -0.03100
C4658       C  0.48844679  0.25161638  0.62224795     0.03700
N4659       N  0.47434053  0.25936784  0.60942841     0.66200
H4660       H  0.47210826  0.26175009  0.64648366     0.15100
H4661       H  0.53069266  0.22575422  0.62409390     0.14800
N4662       N  0.52850581  0.22755583  0.66152980     0.73900
O4663       O  0.45888126  0.25030955  0.60671863    -0.39500
O4664       O  0.47406959  0.27722381  0.60700661    -0.39500
O4665       O  0.52822775  0.20969050  0.66364597    -0.40200
O4666       O  0.54428588  0.23600855  0.66438041    -0.40200
C4667       C  0.48125305  0.12065079  0.45887117    -0.12500
C4668       C  0.46936548  0.10809406  0.46884559     0.04500
C4669       C  0.45592157  0.11587097  0.48237260    -0.07800
C4670       C  0.45616537  0.13533044  0.48722531    -0.08600
C4671       C  0.47041382  0.14700360  0.47988900    -0.03100
C4672       C  0.48169672  0.14016961  0.46431546     0.03700
N4673       N  0.49552855  0.15244798  0.45597379     0.66200
H4674       H  0.49134299  0.11505986  0.44811778     0.15100
H4675       H  0.44737387  0.14053814  0.49922108     0.14800
N4676       N  0.44309923  0.10416635  0.49280382     0.73900
O4677       O  0.51239118  0.15306038  0.46302503    -0.39500
O4678       O  0.48935731  0.16636814  0.44628861    -0.39500
O4679       O  0.44775914  0.09991953  0.50973931    -0.40200
O4680       O  0.42531432  0.10481963  0.48845868    -0.40200
C4681       C  0.44111889  0.27904341  0.83739925    -0.12500
C4682       C  0.44526497  0.25982773  0.83297487     0.04500
C4683       C  0.44550688  0.24674603  0.84838422    -0.07800
C4684       C  0.44123265  0.25319327  0.86737618    -0.08600
C4685       C  0.43700868  0.27257923  0.87161812    -0.03100
C4686       C  0.43728264  0.28554203  0.85609846     0.03700
N4687       N  0.43331682  0.30557843  0.85857959     0.66200
H4688       H  0.44123752  0.28953364  0.82614905     0.15100
H4689       H  0.44110258  0.24292471  0.87881216     0.14800
N4690       N  0.44945916  0.22681724  0.84523747     0.73900
O4691       O  0.44756263  0.31661974  0.85976007    -0.39500
O4692       O  0.41741399  0.31218337  0.85227810    -0.39500
O4693       O  0.46571710  0.22013221  0.85050185    -0.40200
O4694       O  0.43528875  0.21568403  0.84406542    -0.40200
C4695       C  0.34857775  0.25174906  0.99230798    -0.12500
C4696       C  0.35498747  0.24771523  0.97342063     0.04500
C4697       C  0.34154619  0.23953119  0.96044182    -0.07800
C4698       C  0.32190662  0.23850847  0.96550375    -0.08600
C4699       C  0.31520626  0.24495738  0.98356806    -0.03100
C4700       C  0.32900808  0.25069931  0.99740650     0.03700
N4701       N  0.32348149  0.25726618  0.01618988     0.66200
H4702       H  0.35849751  0.25736874  0.00301307     0.15100
H4703       H  0.31170636  0.23309596  0.95493275     0.14800
N4704       N  0.34716438  0.23261782  0.94187529     0.73900
O4705       O  0.32646100  0.24623328  0.03003788    -0.39500
O4706       O  0.32254312  0.27508906  0.01954769    -0.39500
O4707       O  0.34799987  0.21474256  0.93885295    -0.40200
O4708       O  0.34405276  0.24333194  0.92787614    -0.40200
C4709       C  0.44992174  0.37876662  0.01403462    -0.12500
C4710       C  0.45650979  0.36996944  0.99691921     0.04500
C4711       C  0.46830001  0.38072284  0.98479738    -0.07800
C4712       C  0.47103589  0.40033429  0.98854316    -0.08600
C4713       C  0.46301673  0.40956459  0.00483625    -0.03100
C4714       C  0.45330687  0.39820833  0.01827425     0.03700
N4715       N  0.44571332  0.40622159  0.03578328     0.66200
H4716       H  0.44111580  0.37075147  0.02371388     0.15100
H4717       H  0.47948437  0.40842691  0.97854219     0.14800
N4718       N  0.47711340  0.37219777  0.96814433     0.73900
O4719       O  0.42805327  0.41134074  0.03636346    -0.39500
O4720       O  0.45418499  0.40208718  0.05126735    -0.39500
O4721       O  0.46986616  0.37581861  0.95200127    -0.40200
O4722       O  0.49478786  0.36721088  0.96901668    -0.40200
C4723       C  0.35777016  0.25631976  0.85111400    -0.12500
C4724       C  0.33777250  0.25336029  0.85242864     0.04500
C4725       C  0.32944907  0.25248659  0.87089682    -0.07800
C4726       C  0.34030298  0.25799949  0.88699461    -0.08600
C4727       C  0.35995388  0.26231691  0.88545731    -0.03100
C4728       C  0.36891592  0.26035071  0.86734490     0.03700
N4729       N  0.38875039  0.26467735  0.86448230     0.66200
H4730       H  0.36462033  0.25752370  0.83723080     0.15100
H4731       H  0.33283854  0.26012398  0.90051279     0.14800
N4732       N  0.30965934  0.24777323  0.87372381     0.73900
O4733       O  0.40016866  0.25087568  0.86035371    -0.39500
O4734       O  0.39261077  0.28105299  0.85842861    -0.39500
O4735       O  0.30610448  0.23086519  0.87843703    -0.40200
O4736       O  0.29787450  0.26098033  0.87877516    -0.40200
C4737       C  0.34694810  0.24823282  0.74955143    -0.12500
C4738       C  0.34090858  0.24397129  0.76822711     0.04500
C4739       C  0.35412490  0.23374677  0.77995012    -0.07800
C4740       C  0.37365355  0.23156436  0.77440868    -0.08600
C4741       C  0.38016034  0.23853305  0.75694811    -0.03100
C4742       C  0.36632061  0.24569093  0.74384904     0.03700
N4743       N  0.37156541  0.25118912  0.72498087     0.66200
H4744       H  0.33694043  0.25535185  0.73987110     0.15100
H4745       H  0.38398254  0.22514985  0.78424770     0.14800
N4746       N  0.34848561  0.22604856  0.79779541     0.73900
O4747       O  0.36835901  0.23957931  0.71126198    -0.39500
O4748       O  0.37228076  0.26881114  0.72148247    -0.39500
O4749       O  0.34458848  0.20848745  0.79807462    -0.40200
O4750       O  0.35483147  0.23383375  0.81293971    -0.40200
C4751       C  0.24857348  0.38105919  0.75587351    -0.12500
C4752       C  0.23924853  0.37443395  0.77219509     0.04500
C4753       C  0.22634150  0.38702482  0.78223233    -0.07800
C4754       C  0.22418551  0.40615358  0.77669753    -0.08600
C4755       C  0.23503693  0.41328780  0.76154877    -0.03100
C4756       C  0.24673525  0.40027465  0.75054198     0.03700
N4757       N  0.25701133  0.40610645  0.73397673     0.66200
H4758       H  0.25859310  0.37162634  0.74802708     0.15100
H4759       H  0.21484648  0.41578984  0.78509370     0.14800
N4760       N  0.21573271  0.38093434  0.79848649     0.73900
O4761       O  0.27511764  0.40818274  0.73530146    -0.39500
O4762       O  0.24985903  0.40219692  0.71770126    -0.39500
O4763       O  0.22157012  0.38580709  0.81502438    -0.40200
O4764       O  0.19807658  0.37696919  0.79622095    -0.40200
C4765       C  0.25372724  0.24310235  0.87337775    -0.12500
C4766       C  0.24189027  0.25378844  0.86107807     0.04500
C4767       C  0.22315992  0.25965886  0.86797399    -0.07800
C4768       C  0.21797222  0.25699519  0.88727237    -0.08600
C4769       C  0.23085660  0.24829384  0.90005431    -0.03100
C4770       C  0.24844370  0.24026687  0.89255845     0.03700
N4771       N  0.26112531  0.22884520  0.90404185     0.66200
H4772       H  0.26775241  0.23775992  0.86844620     0.15100
H4773       H  0.20409845  0.26256373  0.89245032     0.14800
N4774       N  0.20891076  0.26807590  0.85569866     0.73900
O4775       O  0.26045988  0.21087459  0.90202974    -0.39500
O4776       O  0.27658200  0.23610201  0.91026425    -0.39500
O4777       O  0.19553013  0.25755711  0.84944010    -0.40200
O4778       O  0.20555839  0.28585220  0.85727091    -0.40200
C4779       C  0.45799777  0.40524702  0.89953280    -0.12500
C4780       C  0.44335264  0.41939877  0.90021710     0.04500
C4781       C  0.42990209  0.41935355  0.91543663    -0.07800
C4782       C  0.42899665  0.40354866  0.92709397    -0.08600
C4783       C  0.44057325  0.38732928  0.92311674    -0.03100
C4784       C  0.45640556  0.38886481  0.91038378     0.03700
N4785       N  0.47010835  0.37359101  0.90698392     0.66200
H4786       H  0.46914445  0.40554021  0.88857089     0.15100
H4787       H  0.41736125  0.40315245  0.93754067     0.14800
N4788       N  0.41547130  0.43393375  0.91809182     0.73900
O4789       O  0.46794592  0.36308312  0.89220520    -0.39500
O4790       O  0.48695229  0.37527376  0.91387598    -0.39500
O4791       O  0.39849177  0.43066431  0.91227057    -0.40200
O4792       O  0.41761686  0.44520705  0.93221148    -0.40200
C4793       C  0.36852653  0.37874766  0.76969310    -0.12500
C4794       C  0.36090676  0.39716686  0.77357034     0.04500
C4795       C  0.34066547  0.40042418  0.77176215    -0.07800
C4796       C  0.32850830  0.38508089  0.76814809    -0.08600
C4797       C  0.33582872  0.36626056  0.76758242    -0.03100
C4798       C  0.35616137  0.36321044  0.76694414     0.03700
N4799       N  0.36457083  0.34441565  0.76562713     0.66200
H4800       H  0.38401183  0.37600609  0.77096054     0.15100
H4801       H  0.31293483  0.38773906  0.76823189     0.14800
N4802       N  0.33177503  0.41881074  0.77520849     0.73900
O4803       O  0.37023465  0.33822215  0.74939481    -0.39500
O4804       O  0.37176780  0.33714004  0.78053201    -0.39500
O4805       O  0.32570998  0.42793166  0.76088933    -0.40200
O4806       O  0.32346145  0.42189381  0.79112915    -0.40200
C4807       C  0.46945149  0.34738102  0.77856923    -0.12500
C4808       C  0.45582671  0.33666459  0.76818483     0.04500
C4809       C  0.43821581  0.34610975  0.76293828    -0.07800
C4810       C  0.43415885  0.36510783  0.76916488    -0.08600
C4811       C  0.44720634  0.37530619  0.78073127    -0.03100
C4812       C  0.46532875  0.36630170  0.78495145     0.03700
N4813       N  0.47998385  0.37606038  0.79556137     0.66200
H4814       H  0.48324128  0.34079371  0.78246481     0.15100
H4815       H  0.42027897  0.37164600  0.76551252     0.14800
N4816       N  0.42425766  0.33691850  0.75098759     0.73900
O4817       O  0.48248164  0.37195021  0.81295082    -0.39500
O4818       O  0.49398641  0.38281763  0.78641622    -0.39500
O4819       O  0.40975731  0.32968148  0.75885392    -0.40200
O4820       O  0.42287089  0.34188177  0.73371958    -0.40200
C4821       C  0.36308053  0.50044021  0.76166726    -0.12500
C4822       C  0.36944737  0.48162836  0.75732312     0.04500
C4823       C  0.35614304  0.46914291  0.74850348    -0.07800
C4824       C  0.33629247  0.47439804  0.74755154    -0.08600
C4825       C  0.32947804  0.49249174  0.75443299    -0.03100
C4826       C  0.34347024  0.50598775  0.76032295     0.03700
N4827       N  0.33821468  0.52495363  0.76662858     0.66200
H4828       H  0.37311289  0.51066653  0.76775922     0.15100
H4829       H  0.32613621  0.46422696  0.74156484     0.14800
N4830       N  0.36273639  0.45123562  0.74036531     0.73900
O4831       O  0.33622147  0.52814391  0.78442296    -0.39500
O4832       O  0.34292447  0.53864372  0.75618087    -0.39500
O4833       O  0.36182902  0.43637676  0.75021385    -0.40200
O4834       O  0.37415467  0.45125296  0.72622185    -0.40200
C4835       C  0.48101370  0.47860845  0.89283981    -0.12500
C4836       C  0.47162940  0.49314579  0.88264410     0.04500
C4837       C  0.46779140  0.51086293  0.89228523    -0.07800
C4838       C  0.47202693  0.51315834  0.91191551    -0.08600
C4839       C  0.47906031  0.49776893  0.92263440    -0.03100
C4840       C  0.48432601  0.48050861  0.91265835     0.03700
N4841       N  0.49202807  0.46424514  0.92236076     0.66200
H4842       H  0.48362428  0.46473742  0.88590596     0.15100
H4843       H  0.46801080  0.52655832  0.91913761     0.14800
N4844       N  0.45792576  0.52619555  0.88293507     0.73900
O4845       O  0.48088340  0.45052043  0.92536897    -0.39500
O4846       O  0.51003409  0.46077154  0.92120466    -0.39500
O4847       O  0.44022889  0.52932011  0.88672345    -0.40200
O4848       O  0.46786830  0.53980559  0.87695545    -0.40200
C4849       C  0.36572302  0.50090130  0.90451989    -0.12500
C4850       C  0.34833044  0.49283102  0.89860076     0.04500
C4851       C  0.34133646  0.49646303  0.87996102    -0.07800
C4852       C  0.35341186  0.50488780  0.86666185    -0.08600
C4853       C  0.37263659  0.50891712  0.87151837    -0.03100
C4854       C  0.37764391  0.50958128  0.89123503     0.03700
N4855       N  0.39528247  0.51774946  0.89788876     0.66200
H4856       H  0.37056277  0.49964438  0.91923086     0.15100
H4857       H  0.34867249  0.50520707  0.85181499     0.14800
N4858       N  0.32315018  0.48965109  0.87335371     0.73900
O4859       O  0.39443432  0.53438890  0.90530725    -0.39500
O4860       O  0.40912473  0.50668955  0.90254139    -0.39500
O4861       O  0.31015396  0.50191530  0.86937799    -0.40200
O4862       O  0.32298920  0.47359270  0.86475589    -0.40200
C4863       C  0.29442789  0.35161224  0.90351676    -0.12500
C4864       C  0.27828517  0.35796736  0.91392717     0.04500
C4865       C  0.25975806  0.35609787  0.90574102    -0.07800
C4866       C  0.25807280  0.35258304  0.88607630    -0.08600
C4867       C  0.27472797  0.35091345  0.87462174    -0.03100
C4868       C  0.29308164  0.34943576  0.88369268     0.03700
N4869       N  0.31070574  0.34649059  0.87334033     0.66200
H4870       H  0.30877644  0.35238175  0.90994370     0.15100
H4871       H  0.24373566  0.35223635  0.87966252     0.14800
N4872       N  0.24262235  0.35970646  0.91678019     0.73900
O4873       O  0.31973415  0.36105708  0.86820126    -0.39500
O4874       O  0.32034201  0.33138858  0.87657882    -0.39500
O4875       O  0.23366916  0.37550996  0.91504311    -0.40200
O4876       O  0.23350884  0.34554679  0.92279573    -0.40200
C4877       C  0.36088358  0.39012790  0.02013643    -0.12500
C4878       C  0.34119164  0.38661208  0.01662796     0.04500
C4879       C  0.33444581  0.36775138  0.01939380    -0.07800
C4880       C  0.34777347  0.35250040  0.02031755    -0.08600
C4881       C  0.36740227  0.35588949  0.01782974    -0.03100
C4882       C  0.37414872  0.37462588  0.02108478     0.03700
N4883       N  0.39461019  0.37784635  0.02103609     0.66200
H4884       H  0.36634369  0.40450519  0.01903744     0.15100
H4885       H  0.34246600  0.33802014  0.01902268     0.14800
N4886       N  0.31438976  0.36321082  0.01782994     0.73900
O4887       O  0.40153756  0.38977674  0.00968704    -0.39500
O4888       O  0.40586812  0.36575438  0.02872756    -0.39500
O4889       O  0.30867207  0.35490217  0.00264256    -0.40200
O4890       O  0.30512990  0.36065720  0.03313779    -0.40200
C4891       C  0.26834438  0.49197782  0.87015738    -0.12500
C4892       C  0.27664648  0.47372432  0.87281606     0.04500
C4893       C  0.27993194  0.46207064  0.85597944    -0.07800
C4894       C  0.27467484  0.46847577  0.83774288    -0.08600
C4895       C  0.26551598  0.48622876  0.83496147    -0.03100
C4896       C  0.26270056  0.49829694  0.85167622     0.03700
N4897       N  0.25407894  0.51698386  0.85058783     0.66200
H4898       H  0.26570327  0.50128531  0.88256802     0.15100
H4899       H  0.27729122  0.45883184  0.82558163     0.14800
N4900       N  0.28828900  0.44322651  0.85673635     0.73900
O4901       O  0.23632796  0.51899638  0.85475736    -0.39500
O4902       O  0.26491944  0.53121824  0.85281113    -0.39500
O4903       O  0.27708695  0.42927603  0.85456158    -0.40200
O4904       O  0.30585739  0.44086371  0.85199530    -0.40200
C4905       C  0.27018894  0.35255163  0.97488258    -0.12500
C4906       C  0.25637992  0.36735447  0.97852611     0.04500
C4907       C  0.23678511  0.36202736  0.98045271    -0.07800
C4908       C  0.23184676  0.34248822  0.97958994    -0.08600
C4909       C  0.24592213  0.32775853  0.97658386    -0.03100
C4910       C  0.26532512  0.33319667  0.97391144     0.03700
N4911       N  0.28070553  0.31941226  0.97118410     0.66200
H4912       H  0.28527515  0.35591860  0.97277895     0.15100
H4913       H  0.21680123  0.33881140  0.98168633     0.14800
N4914       N  0.22170761  0.37587124  0.98421063     0.73900
O4915       O  0.28740628  0.31676540  0.95446675    -0.39500
O4916       O  0.29145070  0.31554343  0.98532863    -0.39500
O4917       O  0.20980027  0.37952603  0.97093787    -0.40200
O4918       O  0.21643447  0.37876356  0.00138730    -0.40200
C4919       C  0.36879663  0.49233529  0.96559747    -0.12500
C4920       C  0.35480511  0.49298865  0.98023633     0.04500
C4921       C  0.36160862  0.49521551  0.99943394    -0.07800
C4922       C  0.38160936  0.49584853  0.00338570    -0.08600
C4923       C  0.39559036  0.49415210  0.98880117    -0.03100
C4924       C  0.38882000  0.49300049  0.96962332     0.03700
N4925       N  0.40186674  0.49288539  0.95382986     0.66200
H4926       H  0.36426069  0.49037171  0.95082175     0.15100
H4927       H  0.38621517  0.49714937  0.01823752     0.14800
N4928       N  0.34865772  0.49647113  0.01539444     0.73900
O4929       O  0.40494421  0.47727015  0.94494606    -0.39500
O4930       O  0.40399787  0.50824062  0.94495847    -0.39500
O4931       O  0.34783048  0.48232898  0.02631311    -0.40200
O4932       O  0.34430651  0.51288545  0.02219584    -0.40200
C4933       C  0.99154337  0.77531372  0.85950342    -0.12500
C4934       C  0.98432597  0.76072656  0.87079871     0.04500
C4935       C  0.98401087  0.74184832  0.86303068    -0.07800
C4936       C  0.98859615  0.73837418  0.84377882    -0.08600
C4937       C  0.99339197  0.75334311  0.83182214    -0.03100
C4938       C  0.99606217  0.77179708  0.84007121     0.03700
N4939       N  0.00378409  0.78699743  0.82926887     0.66200
H4940       H  0.99212142  0.78984137  0.86525442     0.15100
H4941       H  0.98715038  0.72398161  0.83786179     0.14800
N4942       N  0.97788002  0.72610263  0.87409020     0.73900
O4943       O  0.99232268  0.79975435  0.82306905    -0.39500
O4944       O  0.02139209  0.79104163  0.83175322    -0.39500
O4945       O  0.96129117  0.71938497  0.87088576    -0.40200
O4946       O  0.99074005  0.71539662  0.88140091    -0.40200
C4947       C  0.86971007  0.71896864  0.94472512    -0.12500
C4948       C  0.87921051  0.71963466  0.96249460     0.04500
C4949       C  0.86914908  0.71391656  0.97891269    -0.07800
C4950       C  0.84921445  0.71071735  0.97782515    -0.08600
C4951       C  0.83906490  0.71370503  0.96068729    -0.03100
C4952       C  0.84963256  0.71654184  0.94376533     0.03700
N4953       N  0.84012538  0.71910612  0.92586569     0.66200
H4954       H  0.87728367  0.72323866  0.93192611     0.15100
H4955       H  0.84136685  0.70787807  0.99090921     0.14800
N4956       N  0.87844454  0.71302643  0.99717321     0.73900
O4957       O  0.83579793  0.73596132  0.92111182    -0.39500
O4958       O  0.84217255  0.70626941  0.91295385    -0.39500
O4959       O  0.87627161  0.72697946  0.00882837    -0.40200
O4960       O  0.88278121  0.69675046  0.00363332    -0.40200
C4961       C  0.97797382  0.85496362  0.98572769    -0.12500
C4962       C  0.97976333  0.84897255  0.96645560     0.04500
C4963       C  0.98759692  0.86173161  0.95312091    -0.07800
C4964       C  0.99158494  0.88050699  0.95892009    -0.08600
C4965       C  0.98778507  0.88690002  0.97766701    -0.03100
C4966       C  0.98169838  0.87381004  0.99140350     0.03700
N4967       N  0.97758635  0.87961098  0.01076280     0.66200
H4968       H  0.97206359  0.84540129  0.99619068     0.15100
H4969       H  0.99633514  0.89054872  0.94832058     0.14800
N4970       N  0.98954597  0.85685109  0.93322348     0.73900
O4971       O  0.96040938  0.88465696  0.01502161    -0.39500
O4972       O  0.98856979  0.87343188  0.02385647    -0.39500
O4973       O  0.97693017  0.86328605  0.92176080    -0.40200
O4974       O  0.00629457  0.85274204  0.92687608    -0.40200
C4975       C  0.96123699  0.83709614  0.83777317    -0.12500
C4976       C  0.96817088  0.85560838  0.84083323     0.04500
C4977       C  0.97865064  0.85963518  0.85784586    -0.07800
C4978       C  0.97805540  0.84672689  0.87294233    -0.08600
C4979       C  0.96673251  0.83039812  0.87123626    -0.03100
C4980       C  0.95957803  0.82477929  0.85301200     0.03700
N4981       N  0.94772348  0.80836643  0.85035011     0.66200
H4982       H  0.95404118  0.83338246  0.82437217     0.15100
H4983       H  0.98435022  0.85070576  0.88666837     0.14800
N4984       N  0.98841029  0.87724102  0.86086380     0.73900
O4985       O  0.95482167  0.79387331  0.84159907    -0.39500
O4986       O  0.92953994  0.81087776  0.85016403    -0.39500
O4987       O  0.98067300  0.88984230  0.87177651    -0.40200
O4988       O  0.00658784  0.87721119  0.85868724    -0.40200
C4989       C  0.85436291  0.98677755  0.76259295    -0.12500
C4990       C  0.86451329  0.97511288  0.74913642     0.04500
C4991       C  0.85457423  0.96986638  0.73205491    -0.07800
C4992       C  0.83471921  0.97424730  0.72980695    -0.08600
C4993       C  0.82402249  0.98406680  0.74414869    -0.03100
C4994       C  0.83445690  0.99155312  0.76013351     0.03700
N4995       N  0.82558847  0.00478760  0.77350068     0.66200
H4996       H  0.86152086  0.99110425  0.77581400     0.15100
H4997       H  0.82737551  0.96896410  0.71703448     0.14800
N4998       N  0.86403195  0.95885999  0.71719699     0.73900
O4999       O  0.82087612  0.99897137  0.78982527    -0.39500
O5000       O  0.82884830  0.02236744  0.77165257    -0.39500
O5001       O  0.86829652  0.96715069  0.70189563    -0.40200
O5002       O  0.86181960  0.94097835  0.71662290    -0.40200
C5003       C  0.00497622  0.83188390  0.77507353    -0.12500
C5004       C  0.99877600  0.82275107  0.75820888     0.04500
C5005       C  0.99023109  0.83373306  0.74366654    -0.07800
C5006       C  0.98675046  0.85327045  0.74680153    -0.08600
C5007       C  0.99015721  0.86208275  0.76482455    -0.03100
C5008       C  0.00078693  0.85138403  0.77858230     0.03700
N5009       N  0.00659080  0.85938234  0.79662371     0.66200
H5010       H  0.01211200  0.82358472  0.78611980     0.15100
H5011       H  0.97936170  0.86106753  0.73555884     0.14800
N5012       N  0.98360859  0.82522327  0.72611094     0.73900
O5013       O  0.99699453  0.85511891  0.81123635    -0.39500
O5014       O  0.02424442  0.86337121  0.79882357    -0.39500
O5015       O  0.96563330  0.82265674  0.72409765    -0.40200
O5016       O  0.99385482  0.82697026  0.71128398    -0.40200
C5017       C  0.97895917  0.94636197  0.87272578    -0.12500
C5018       C  0.96385609  0.93353975  0.86985523     0.04500
C5019       C  0.95394919  0.92690589  0.88608862    -0.07800
C5020       C  0.95853274  0.93383061  0.90442265    -0.08600
C5021       C  0.97279169  0.94765055  0.90750469    -0.03100
C5022       C  0.98351365  0.95351470  0.89123483     0.03700
N5023       N  0.99886987  0.96684149  0.89282155     0.66200
H5024       H  0.98658174  0.95173567  0.86041566     0.15100
H5025       H  0.95023190  0.92854242  0.91632158     0.14800
N5026       N  0.93869792  0.91341762  0.88440083     0.73900
O5027       O  0.01606734  0.96029489  0.89318294    -0.39500
O5028       O  0.99590791  0.98355585  0.88678184    -0.39500
O5029       O  0.94223421  0.89639521  0.88925478    -0.40200
O5030       O  0.92139582  0.91964508  0.88526294    -0.40200
C5031       C  0.83296402  0.84830873  0.94379096    -0.12500
C5032       C  0.83580481  0.86518004  0.95444747     0.04500
C5033       C  0.84686430  0.86411813  0.97156958    -0.07800
C5034       C  0.85775368  0.84747954  0.97534509    -0.08600
C5035       C  0.85687041  0.83147542  0.96310031    -0.03100
C5036       C  0.84302235  0.83150302  0.94803253     0.03700
N5037       N  0.83979025  0.81522194  0.93580926     0.66200
H5038       H  0.82342955  0.84831239  0.93137479     0.15100
H5039       H  0.86760770  0.84737164  0.98750008     0.14800
N5040       N  0.84815545  0.87958928  0.98505147     0.73900
O5041       O  0.82422789  0.80632192  0.93796588    -0.39500
O5042       O  0.84787261  0.81445954  0.91956342    -0.39500
O5043       O  0.83599296  0.88028889  0.99859326    -0.40200
O5044       O  0.86485289  0.88595421  0.98829004    -0.40200
C5045       C  0.82080637  0.97074179  0.83202890    -0.12500
C5046       C  0.82760089  0.97900990  0.84934004     0.04500
C5047       C  0.84654371  0.98613376  0.84979047    -0.07800
C5048       C  0.85915911  0.98136815  0.83479601    -0.08600
C5049       C  0.85377541  0.96795367  0.82049186    -0.03100
C5050       C  0.83391740  0.96407589  0.81808158     0.03700
N5051       N  0.82708553  0.95121284  0.80346851     0.66200
H5052       H  0.80589340  0.96625141  0.83067323     0.15100
H5053       H  0.87407027  0.98590489  0.83609490     0.14800
N5054       N  0.85396266  0.99650955  0.86597785     0.73900
O5055       O  0.82343209  0.93422702  0.80786054    -0.39500
O5056       O  0.81918912  0.95807856  0.78873195    -0.39500
O5057       O  0.86483419  0.98773405  0.87759666    -0.40200
O5058       O  0.85563664  0.01438268  0.86463798    -0.40200
C5059       C  0.71938444  0.97016239  0.85481601    -0.12500
C5060       C  0.73349518  0.98231821  0.86260644     0.04500
C5061       C  0.74132170  0.99629029  0.85062224    -0.07800
C5062       C  0.73734316  0.99585502  0.83095481    -0.08600
C5063       C  0.72563049  0.98178131  0.82270663    -0.03100
C5064       C  0.71565418  0.96946387  0.83494783     0.03700
N5065       N  0.70344126  0.95478326  0.82756481     0.66200
H5066       H  0.71350466  0.95905943  0.86362758     0.15100
H5067       H  0.74457981  0.00587985  0.82183292     0.14800
N5068       N  0.75564697  0.00922582  0.85752373     0.73900
O5069       O  0.71043370  0.93800765  0.82580089    -0.39500
O5070       O  0.68534448  0.95689329  0.82970699    -0.39500
O5071       O  0.77324935  0.00555164  0.85369075    -0.40200
O5072       O  0.75049753  0.02638258  0.86102027    -0.40200
C5073       C  0.77289444  0.84296500  0.93926214    -0.12500
C5074       C  0.77330510  0.85690971  0.95416450     0.04500
C5075       C  0.77124473  0.85053621  0.97323505    -0.07800
C5076       C  0.76758773  0.83102923  0.97663370    -0.08600
C5077       C  0.76640196  0.81747823  0.96146255    -0.03100
C5078       C  0.76946728  0.82368910  0.94262305     0.03700
N5079       N  0.76779976  0.81099538  0.92638549     0.66200
H5080       H  0.77482879  0.84710626  0.92448540     0.15100
H5081       H  0.76569301  0.82644483  0.99126655     0.14800
N5082       N  0.77232415  0.86338196  0.98935569     0.73900
O5083       O  0.75195096  0.81091835  0.91727686    -0.39500
O5084       O  0.78309371  0.80557624  0.91774117    -0.39500
O5085       O  0.75674513  0.86836450  0.99773816    -0.40200
O5086       O  0.78796841  0.86375916  0.99879085    -0.40200
C5087       C  0.85928782  0.97943377  0.96650210    -0.12500
C5088       C  0.85345400  0.96025441  0.96755853     0.04500
C5089       C  0.86754143  0.94664610  0.97322713    -0.07800
C5090       C  0.88687778  0.95173789  0.97588101    -0.08600
C5091       C  0.89307604  0.97051788  0.97345634    -0.03100
C5092       C  0.87869267  0.98471418  0.96962594     0.03700
N5093       N  0.88326204  0.00444249  0.96821769     0.66200
H5094       H  0.84883629  0.99046456  0.96253731     0.15100
H5095       H  0.89718907  0.94061851  0.97994881     0.14800
N5096       N  0.86278119  0.92737691  0.97645354     0.73900
O5097       O  0.88428635  0.01146364  0.95172091    -0.39500
O5098       O  0.87914341  0.01546634  0.98228265    -0.39500
O5099       O  0.86729398  0.91498107  0.96369308    -0.40200
O5100       O  0.86143046  0.92240770  0.99369405    -0.40200
C5101       C  0.85927391  0.85138773  0.72167380    -0.12500
C5102       C  0.84151228  0.85885036  0.72855130     0.04500
C5103       C  0.83822372  0.87885775  0.72771227    -0.07800
C5104       C  0.85375604  0.89072366  0.72410630    -0.08600
C5105       C  0.87270162  0.88308913  0.72443370    -0.03100
C5106       C  0.87514735  0.86334939  0.71999329     0.03700
N5107       N  0.89374098  0.85458857  0.71675465     0.66200
H5108       H  0.86187133  0.83605175  0.72060056     0.15100
H5109       H  0.85136428  0.90604380  0.72585734     0.14800
N5110       N  0.82035140  0.88776054  0.73347953     0.73900
O5111       O  0.90133247  0.84526217  0.73023108    -0.39500
O5112       O  0.89816103  0.84981079  0.69971842    -0.39500
O5113       O  0.81934255  0.89490465  0.75024957    -0.40200
O5114       O  0.80953436  0.89463737  0.72061537    -0.40200
C5115       C  0.85518945  0.74302336  0.85156876    -0.12500
C5116       C  0.84206168  0.75873017  0.85208557     0.04500
C5117       C  0.83694114  0.76719380  0.87001859    -0.07800
C5118       C  0.84687263  0.76193953  0.88644397    -0.08600
C5119       C  0.86211656  0.74850904  0.88553303    -0.03100
C5120       C  0.86503057  0.73768732  0.86844735     0.03700
N5121       N  0.87796776  0.72144303  0.86838884     0.66200
H5122       H  0.85852645  0.73568083  0.83807446     0.15100
H5123       H  0.84393761  0.77011106  0.89956003     0.14800
N5124       N  0.82274232  0.78229013  0.87187953     0.73900
O5125       O  0.87430797  0.70776328  0.87927537    -0.39500
O5126       O  0.89495767  0.72298182  0.86195146    -0.39500
O5127       O  0.80674947  0.77851338  0.87959008    -0.40200
O5128       O  0.82865246  0.79923544  0.87326287    -0.40200
C5129       C  0.73244021  0.88644967  0.84428767    -0.12500
C5130       C  0.74235463  0.90345223  0.84188535     0.04500
C5131       C  0.74995992  0.90705591  0.82336947    -0.07800
C5132       C  0.75309199  0.89177537  0.81051737    -0.08600
C5133       C  0.74828270  0.87329213  0.81571435    -0.03100
C5134       C  0.73537504  0.87119747  0.83134793     0.03700
N5135       N  0.72634538  0.85352731  0.83536798     0.66200
H5136       H  0.72478359  0.88392602  0.85755314     0.15100
H5137       H  0.76133567  0.89416711  0.79757058     0.14800
N5138       N  0.75618616  0.92548129  0.81776924     0.73900
O5139       O  0.73314429  0.84361701  0.84882585    -0.39500
O5140       O  0.70861953  0.85196601  0.83116044    -0.39500
O5141       O  0.77416350  0.92844401  0.81719197    -0.40200
O5142       O  0.74527950  0.93477344  0.80660773    -0.40200
C5143       C  0.77148505  0.88098029  0.75153992    -0.12500
C5144       C  0.75697013  0.86700966  0.74881825     0.04500
C5145       C  0.73754703  0.87397821  0.74736862    -0.07800
C5146       C  0.73348019  0.89392991  0.74720868    -0.08600
C5147       C  0.74814585  0.90753306  0.74945662    -0.03100
C5148       C  0.76722871  0.90077095  0.75224212     0.03700
N5149       N  0.78253588  0.91400745  0.75531363     0.66200
H5150       H  0.78647750  0.87657156  0.75327874     0.15100
H5151       H  0.71858339  0.89883229  0.74538608     0.14800
N5152       N  0.72155073  0.86141865  0.74616804     0.73900
O5153       O  0.78575201  0.92010878  0.77218197    -0.39500
O5154       O  0.78845721  0.92352677  0.74135706    -0.39500
O5155       O  0.71179148  0.85905305  0.76121902    -0.40200
O5156       O  0.71322095  0.85934273  0.73013601    -0.40200
C5157       C  0.88081472  0.74861470  0.78680938    -0.12500
C5158       C  0.86878865  0.74763079  0.77053263     0.04500
C5159       C  0.87713147  0.74102074  0.75302352    -0.07800
C5160       C  0.89701753  0.73639011  0.75189843    -0.08600
C5161       C  0.90937736  0.73875254  0.76774096    -0.03100
C5162       C  0.90092603  0.74450479  0.78556852     0.03700
N5163       N  0.91229214  0.74626830  0.80263257     0.66200
H5164       H  0.87483457  0.75388296  0.80035947     0.15100
H5165       H  0.90303562  0.73192143  0.73810186     0.14800
N5166       N  0.86578897  0.73927998  0.73596159     0.73900
O5167       O  0.91751303  0.76273838  0.80803412    -0.39500
O5168       O  0.91100681  0.73342634  0.81501087    -0.39500
O5169       O  0.86721360  0.75194258  0.72342285    -0.40200
O5170       O  0.86024427  0.72283878  0.73083634    -0.40200
C5171       C  0.78380891  0.74313068  0.86143876    -0.12500
C5172       C  0.76994860  0.75563089  0.85347418     0.04500
C5173       C  0.75327198  0.76063075  0.86459758    -0.07800
C5174       C  0.75145113  0.75405598  0.88332247    -0.08600
C5175       C  0.76606838  0.74296684  0.89178905    -0.03100
C5176       C  0.78211841  0.73693517  0.88041600     0.03700
N5177       N  0.79714072  0.72488611  0.88775085     0.66200
H5178       H  0.79677592  0.73912339  0.85338841     0.15100
H5179       H  0.73883544  0.75854426  0.89169966     0.14800
N5180       N  0.73824801  0.77302088  0.85764230     0.73900
O5181       O  0.79700415  0.70729852  0.88324097    -0.39500
O5182       O  0.81318916  0.73241291  0.89148731    -0.39500
O5183       O  0.72239897  0.76569799  0.85257569    -0.40200
O5184       O  0.73816569  0.79035811  0.86313472    -0.40200
loop_ 
_geom_bond_atom_site_label_1 
_geom_bond_atom_site_label_2 
_geom_bond_distance 
_geom_bond_site_symmetry_2 
_ccdc_geom_bond_type 
Zr1           O2   2.437       .  S
Zr1           O3   2.436       .  S
Zr1           O4   2.496       .  S
Zr1           O7   2.475       .  S
Zr1           O9   2.368       .  S
Zr1          O10   2.380       .  S
Zr1          O11   2.440       .  S
Zr1          O12   2.434       .  S
O2           H58   0.990       .  S
O2           H66   0.990       .  S
O3           C23   1.285       .  A
O4           C25   1.296       .  A
O5          Zr15   2.411       .  S
O5           C24   1.280       .  A
O6          Zr14   2.427       .  S
O6           C25   1.282       .  A
O7           C24   1.294       .  A
O8          Zr16   2.437       .  S
O8           C23   1.287       .  A
O9          Zr14   2.379       .  S
O9          Zr16   2.355       .  S
O10         Zr15   2.356       .  S
O10         Zr16   2.366       .  S
O10          H45   0.963       .  S
O11         Zr14   2.403       .  S
O11         Zr31   2.454       .  S
O11          H48   0.965       .  S
O12         Zr15   2.393       .  S
O12         Zr31   2.441       .  S
Zr13         O38   2.441       .  S
Zr13         O32   2.377       .  S
Zr13         O40   2.446       .  S
Zr13         O28   2.413       .  S
Zr13         O19   2.394       .  S
Zr13         O20   2.396       .  S
Zr13         O21   2.384       .  S
Zr13         O22   2.398       .  S
Zr14         O33   2.436       .  S
Zr14         O26   2.435       .  S
Zr14         O27   2.436       .  S
Zr14         O20   2.408       .  S
Zr14         O21   2.376       .  S
Zr15         O17   2.433       .  S
Zr15         O39   2.437       .  S
Zr15         O41   2.406       .  S
Zr15         O19   2.404       .  S
Zr15         O22   2.363       .  S
Zr16         O42   2.432       .  S
Zr16         O43   2.433       .  S
Zr16         O18   2.438       .  S
Zr16         O19   2.392       .  S
Zr16         O20   2.390       .  S
O17          H54   0.989       .  S
O18          H49   0.990       .  S
O18          H63   0.990       .  S
O20          H46   0.966       .  S
O21         Zr31   2.374       .  S
O22         Zr31   2.357       .  S
O22          H47   0.963       .  S
C23        C5116   1.471       .  S
C24        C5172   1.492       .  S
C25        C5158   1.492       .  S
O26          H62   0.991       .  S
O27          C29   1.286       .  A
O28          C29   1.282       .  A
C29        C5102   1.480       .  S
O30         Zr31   2.437       .  S
O30          H59   0.990       .  S
Zr31         O34   2.436       .  S
Zr31         O35   2.436       .  S
Zr31         O36   2.544       .  S
O32          C37   1.258       .  A
O33          H50   0.990       .  S
O33          H65   0.990       .  S
O34          H51   0.990       .  S
O35          H55   0.990       .  S
O35          H64   0.988       .  S
O36          C37   1.288       .  A
C37        C5144   1.524       .  S
O38          H57   0.990       .  S
O38          H61   0.990       .  S
O39          H53   0.989       .  S
O39          H60   0.990       .  S
O40          C44   1.292       .  A
O41          C44   1.280       .  A
O42          H52   0.990       .  S
O43          H56   0.990       .  S
C44        C5133   1.475       .  S
Zr67         O68   2.432       .  S
Zr67         O69   2.417       .  S
Zr67         O70   2.509       .  S
Zr67         O73   2.496       .  S
Zr67         O75   2.376       .  S
Zr67         O76   2.402       .  S
Zr67         O77   2.439       .  S
Zr67         O78   2.424       .  S
O68         H124   0.990       .  S
O68         H132   0.990       .  S
O69          C89   1.279       .  A
O70          C91   1.297       .  A
O71         Zr81   2.400       .  S
O71          C90   1.276       .  A
O72         Zr80   2.416       .  S
O72          C91   1.284       .  A
O73          C90   1.295       .  A
O74         Zr82   2.444       .  S
O74          C89   1.290       .  A
O75         Zr80   2.385       .  S
O75         Zr82   2.350       .  S
O76         Zr81   2.406       .  S
O76         Zr82   2.366       .  S
O76         H111   0.966       .  S
O77         Zr80   2.405       .  S
O77         Zr97   2.425       .  S
O77         H114   0.966       .  S
O78         Zr81   2.406       .  S
O78         Zr97   2.417       .  S
Zr79        O104   2.432       .  S
Zr79         O98   2.351       .  S
Zr79        O106   2.381       .  S
Zr79         O94   2.370       .  S
Zr79         O85   2.375       .  S
Zr79         O86   2.384       .  S
Zr79         O87   2.372       .  S
Zr79         O88   2.366       .  S
Zr80         O99   2.435       .  S
Zr80         O92   2.436       .  S
Zr80         O93   2.472       .  S
Zr80         O86   2.387       .  S
Zr80         O87   2.358       .  S
Zr81         O83   2.437       .  S
Zr81        O105   2.435       .  S
Zr81        O107   2.459       .  S
Zr81         O85   2.377       .  S
Zr81         O88   2.367       .  S
Zr82        O108   2.435       .  S
Zr82        O109   2.438       .  S
Zr82         O84   2.437       .  S
Zr82         O85   2.394       .  S
Zr82         O86   2.396       .  S
O83         H120   0.990       .  S
O84         H115   0.990       .  S
O84         H129   0.990       .  S
O86         H112   0.966       .  S
O87         Zr97   2.363       .  S
O88         Zr97   2.368       .  S
O88         H113   0.966       .  S
C89        C5032   1.480       .  S
C90        C5088   1.501       .  S
C91        C5074   1.506       .  S
O92         H128   0.991       .  S
O93          C95   1.296       .  A
O94          C95   1.271       .  A
C95        C5130   1.480       .  S
O96         Zr97   2.435       .  S
O96         H125   0.990       .  S
Zr97        O100   2.435       .  S
Zr97        O101   2.437       .  S
Zr97        O102   2.495       .  S
O98         C103   1.271       .  A
O99         H116   0.990       .  S
O99         H131   0.990       .  S
O100        H117   0.990       .  S
O101        H121   0.990       .  S
O101        H130   0.990       .  S
O102        C103   1.295       .  A
C103       C5060   1.469       .  S
O104        H123   0.989       .  S
O104        H127   0.990       .  S
O105        H119   0.990       .  S
O105        H126   0.990       .  S
O106        C110   1.272       .  A
O107        C110   1.288       .  A
O108        H118   0.990       .  S
O109        H122   0.990       .  S
C110       C5046   1.475       .  S
Zr133       O134   2.436       .  S
Zr133       O135   2.439       .  S
Zr133       O136   2.481       .  S
Zr133       O139   2.455       .  S
Zr133       O141   2.369       .  S
Zr133       O142   2.393       .  S
Zr133       O143   2.425       .  S
Zr133       O144   2.442       .  S
O134        H190   0.990       .  S
O134        H198   0.990       .  S
O135        C155   1.283       .  A
O136        C157   1.294       .  A
O137       Zr147   2.425       .  S
O137        C156   1.285       .  A
O138       Zr146   2.392       .  S
O138        C157   1.276       .  A
O139        C156   1.286       .  A
O140       Zr148   2.406       .  S
O140        C155   1.283       .  A
O141       Zr146   2.366       .  S
O141       Zr148   2.366       .  S
O142       Zr147   2.382       .  S
O142       Zr148   2.362       .  S
O142        H177   0.964       .  S
O143       Zr146   2.387       .  S
O143       Zr163   2.439       .  S
O143        H180   0.967       .  S
O144       Zr147   2.392       .  S
O144       Zr163   2.443       .  S
Zr145       O170   2.436       .  S
Zr145       O164   2.365       .  S
Zr145       O172   2.415       .  S
Zr145       O160   2.437       .  S
Zr145       O151   2.384       .  S
Zr145       O152   2.385       .  S
Zr145       O153   2.368       .  S
Zr145       O154   2.377       .  S
Zr146       O165   2.436       .  S
Zr146       O158   2.435       .  S
Zr146       O159   2.386       .  S
Zr146       O152   2.389       .  S
Zr146       O153   2.370       .  S
Zr147       O149   2.435       .  S
Zr147       O171   2.432       .  S
Zr147       O173   2.433       .  S
Zr147       O151   2.400       .  S
Zr147       O154   2.382       .  S
Zr148       O174   2.436       .  S
Zr148       O175   2.433       .  S
Zr148       O150   2.438       .  S
Zr148       O151   2.385       .  S
Zr148       O152   2.380       .  S
O149        H186   0.990       .  S
O150        H181   0.990       .  S
O150        H195   0.990       .  S
O152        H178   0.966       .  S
O153       Zr163   2.338       .  S
O154       Zr163   2.364       .  S
O154        H179   0.966       .  S
C155       C4976   1.476       .  S
C156       C5007   1.496       .  S
C157       C5018   1.480       .  S
O158        H194   0.990       .  S
O159        C161   1.280       .  A
O160        C161   1.285       .  A
C161       C5049   1.475       .  S
O162       Zr163   2.436       .  S
O162        H191   0.990       .  S
Zr163       O166   2.435       .  S
Zr163       O167   2.443       .  S
Zr163       O168   2.538       .  S
O164        C169   1.271       .  A
O165        H182   0.990       .  S
O165        H197   0.990       .  S
O166        H183   0.990       .  S
O167        H187   0.990       .  S
O167        H196   0.989       .  S
O168        C169   1.304       .  A
C169       C4990   1.493       .  S
O170        H189   0.990       .  S
O170        H193   0.990       .  S
O171        H185   0.990       .  S
O171        H192   0.990       .  S
O172        C176   1.287       .  A
O173        C176   1.283       .  A
O174        H184   0.990       .  S
O175        H188   0.990       .  S
C176       C5105   1.482       .  S
Zr199       O200   2.443       .  S
Zr199       O201   2.424       .  S
Zr199       O202   2.432       .  S
Zr199       O205   2.400       .  S
Zr199       O207   2.370       .  S
Zr199       O208   2.391       .  S
Zr199       O209   2.410       .  S
Zr199       O210   2.394       .  S
O200        H256   0.989       .  S
O200        H264   0.990       .  S
O201        C221   1.271       .  A
O202        C223   1.284       .  A
O203       Zr213   2.477       .  S
O203        C222   1.295       .  A
O204       Zr212   2.406       .  S
O204        C223   1.279       .  A
O205        C222   1.275       .  A
O206       Zr214   2.446       .  S
O206        C221   1.279       .  A
O207       Zr212   2.369       .  S
O207       Zr214   2.385       .  S
O208       Zr213   2.386       .  S
O208       Zr214   2.397       .  S
O208        H243   0.965       .  S
O209       Zr212   2.399       .  S
O209       Zr229   2.391       .  S
O209        H246   0.965       .  S
O210       Zr213   2.363       .  S
O210       Zr229   2.371       .  S
Zr211       O236   2.435       .  S
Zr211       O230   2.425       .  S
Zr211       O238   2.435       .  S
Zr211       O226   2.462       .  S
Zr211       O217   2.418       .  S
Zr211       O218   2.407       .  S
Zr211       O219   2.373       .  S
Zr211       O220   2.397       .  S
Zr212       O231   2.440       .  S
Zr212       O224   2.431       .  S
Zr212       O225   2.389       .  S
Zr212       O218   2.402       .  S
Zr212       O219   2.371       .  S
Zr213       O215   2.440       .  S
Zr213       O237   2.441       .  S
Zr213       O239   2.432       .  S
Zr213       O217   2.404       .  S
Zr213       O220   2.403       .  S
Zr214       O240   2.435       .  S
Zr214       O241   2.434       .  S
Zr214       O216   2.436       .  S
Zr214       O217   2.417       .  S
Zr214       O218   2.407       .  S
O215        H252   0.990       .  S
O216        H247   0.990       .  S
O216        H261   0.990       .  S
O218        H244   0.967       .  S
O219       Zr229   2.360       .  S
O220       Zr229   2.360       .  S
O220        H245   0.962       .  S
C221       C4948   1.464       .  S
C222       C5035   1.472       .  S
C223       C5119   1.474       .  S
O224        H260   0.990       .  S
O225        C227   1.276       .  A
O226        C227   1.290       .  A
C227       C4934   1.474       .  S
O228       Zr229   2.435       .  S
O228        H257   0.990       .  S
Zr229       O232   2.434       .  S
Zr229       O233   2.447       .  S
Zr229       O234   2.411       .  S
O230        C235   1.281       .  A
O231        H248   0.990       .  S
O231        H263   0.990       .  S
O232        H249   0.989       .  S
O233        H253   0.990       .  S
O233        H262   0.991       .  S
O234        C235   1.280       .  A
C235       C4979   1.461       .  S
O236        H255   0.990       .  S
O236        H259   0.990   1_655  S
O237        H251   0.990   1_556  S
O237        H258   0.990   1_556  S
O238        C242   1.285       .  A
O239        C242   1.287       .  A
O240        H250   0.990       .  S
O241        H254   0.990       .  S
C242       C4962   1.476       .  S
Zr265       O266   2.434       .  S
Zr265       O267   2.388       .  S
Zr265       O268   2.519       .  S
Zr265       O271   2.548       .  S
Zr265       O273   2.379       .  S
Zr265       O274   2.376       .  S
Zr265       O275   2.447       .  S
Zr265       O276   2.421       .  S
O266        H322   0.990       .  S
O266        H330   0.990       .  S
O267        C287   1.276       .  A
O268        C289   1.300       .  A
O269       Zr279   2.392       .  S
O269        C288   1.276       .  A
O270       Zr278   2.414       .  S
O270        C289   1.272       .  A
O271        C288   1.309       .  A
O272       Zr280   2.475       .  S
O272        C287   1.294       .  A
O273       Zr278   2.401       .  S
O273       Zr280   2.337       .  S
O274       Zr279   2.365       .  S
O274       Zr280   2.359       .  S
O274        H309   0.965       .  S
O275       Zr278   2.422       .  S
O275       Zr295   2.433       .  S
O275        H312   0.967       .  S
O276       Zr279   2.395       .  S
O276       Zr295   2.432       .  S
Zr277       O302   2.439       .  S
Zr277       O296   2.406       .  S
Zr277       O304   2.405       .  S
Zr277       O292   2.386       .  S
Zr277       O283   2.401       .  S
Zr277       O284   2.394       .  S
Zr277       O285   2.375       .  S
Zr277       O286   2.380       .  S
Zr278       O297   2.435   1_556  S
Zr278       O290   2.436       .  S
Zr278       O291   2.469   1_556  S
Zr278       O284   2.397       .  S
Zr278       O285   2.376       .  S
Zr279       O281   2.434       .  S
Zr279       O303   2.436       .  S
Zr279       O305   2.406       .  S
Zr279       O283   2.388       .  S
Zr279       O286   2.351       .  S
Zr280       O306   2.434       .  S
Zr280       O307   2.437       .  S
Zr280       O282   2.438       .  S
Zr280       O283   2.401       .  S
Zr280       O284   2.407       .  S
O281        H318   0.990       .  S
O282        H313   0.990       .  S
O282        H327   0.989       .  S
O284        H310   0.966       .  S
O285       Zr295   2.381       .  S
O286       Zr295   2.358       .  S
O286        H311   0.963       .  S
C287       C4850   1.464       .  S
C288       C4892   1.516       .  S
C289       C4920   1.507       .  S
O290        H326   0.990       .  S
O291        C293   1.291       .  A
O292        C293   1.276   1_556  A
C293       C4878   1.481       .  S
O294       Zr295   2.435       .  S
O294        H323   0.990       .  S
Zr295       O298   2.434   1_556  S
Zr295       O299   2.435       .  S
Zr295       O300   2.513       .  S
O296        C301   1.273       .  A
O297        H314   0.990       .  S
O297        H329   0.990       .  S
O298        H315   0.990       .  S
O299        H319   0.990       .  S
O299        H328   0.990       .  S
O300        C301   1.291       .  A
C301       C4906   1.509       .  S
O302        H321   0.990       .  S
O302        H325   0.990       .  S
O303        H317   0.990       .  S
O303        H324   0.990       .  S
O304        C308   1.278       .  A
O305        C308   1.282       .  A
O306        H316   0.989       .  S
O307        H320   0.990       .  S
C308       C4864   1.442       .  S
Zr331       O332   2.437       .  S
Zr331       O333   2.451       .  S
Zr331       O334   2.487       .  S
Zr331       O337   2.468       .  S
Zr331       O339   2.375       .  S
Zr331       O340   2.401       .  S
Zr331       O341   2.421       .  S
Zr331       O342   2.434       .  S
O332        H388   0.990       .  S
O332        H396   0.990       .  S
O333        C353   1.288       .  A
O334        C355   1.297       .  A
O335       Zr345   2.417       .  S
O335        C354   1.276       .  A
O336       Zr344   2.434       .  S
O336        C355   1.285       .  A
O337        C354   1.288       .  A
O338       Zr346   2.412       .  S
O338        C353   1.280       .  A
O339       Zr344   2.382       .  S
O339       Zr346   2.379       .  S
O340       Zr345   2.398       .  S
O340       Zr346   2.359       .  S
O340        H375   0.965       .  S
O341       Zr344   2.393       .  S
O341       Zr361   2.420       .  S
O341        H378   0.968       .  S
O342       Zr345   2.406       .  S
O342       Zr361   2.426       .  S
Zr343       O368   2.435       .  S
Zr343       O362   2.370       .  S
Zr343       O370   2.404       .  S
Zr343       O358   2.409       .  S
Zr343       O349   2.380       .  S
Zr343       O350   2.395       .  S
Zr343       O351   2.377       .  S
Zr343       O352   2.378       .  S
Zr344       O363   2.437       .  S
Zr344       O356   2.435       .  S
Zr344       O357   2.418       .  S
Zr344       O350   2.394       .  S
Zr344       O351   2.385       .  S
Zr345       O347   2.436       .  S
Zr345       O369   2.436       .  S
Zr345       O371   2.440       .  S
Zr345       O349   2.389       .  S
Zr345       O352   2.385       .  S
Zr346       O372   2.434       .  S
Zr346       O373   2.434       .  S
Zr346       O348   2.437       .  S
Zr346       O349   2.384       .  S
Zr346       O350   2.380       .  S
O347        H384   0.990       .  S
O348        H379   0.990       .  S
O348        H393   0.990       .  S
O350        H376   0.965       .  S
O351       Zr361   2.354       .  S
O352       Zr361   2.363       .  S
O352        H377   0.965       .  S
C353       C4794   1.474       .  S
C354       C4822   1.500       .  S
C355       C4811   1.503       .  S
O356        H392   0.990       .  S
O357        C359   1.286       .  A
O358        C359   1.279       .  A
C359       C4780   1.468       .  S
O360       Zr361   2.434       .  S
O360        H389   0.990       .  S
Zr361       O364   2.435       .  S
Zr361       O365   2.437       .  S
Zr361       O366   2.501       .  S
O362        C367   1.272       .  A
O363        H380   0.990       .  S
O363        H395   0.990       .  S
O364        H381   0.990       .  S
O365        H385   0.990       .  S
O365        H394   0.990       .  S
O366        C367   1.296       .  A
C367       C4836   1.478       .  S
O368        H387   0.990       .  S
O368        H391   0.989       .  S
O369        H383   0.990       .  S
O369        H390   0.990       .  S
O370        C374   1.272       .  A
O371        C374   1.286       .  A
O372        H382   0.988       .  S
O373        H386   0.990       .  S
C374       C4853   1.478       .  S
Zr397       O398   2.435       .  S
Zr397       O399   2.447       .  S
Zr397       O400   2.485       .  S
Zr397       O403   2.504       .  S
Zr397       O405   2.401       .  S
Zr397       O406   2.401       .  S
Zr397       O407   2.452       .  S
Zr397       O408   2.423       .  S
O398        H454   0.990       .  S
O398        H462   0.990       .  S
O399        C419   1.276       .  A
O400        C421   1.293       .  A
O401       Zr411   2.401       .  S
O401        C420   1.270       .  A
O402       Zr410   2.415       .  S
O402        C421   1.284       .  A
O403        C420   1.297       .  A
O404       Zr412   2.403       .  S
O404        C419   1.270       .  A
O405       Zr410   2.381       .  S
O405       Zr412   2.349       .  S
O406       Zr411   2.384       .  S
O406       Zr412   2.395       .  S
O406        H441   0.959       .  S
O407       Zr410   2.409       .  S
O407       Zr427   2.424       .  S
O407        H444   0.966       .  S
O408       Zr411   2.392       .  S
O408       Zr427   2.416       .  S
Zr409       O434   2.441       .  S
Zr409       O428   2.416       .  S
Zr409       O436   2.437       .  S
Zr409       O424   2.417       .  S
Zr409       O415   2.393       .  S
Zr409       O416   2.414       .  S
Zr409       O417   2.390       .  S
Zr409       O418   2.388       .  S
Zr410       O429   2.435       .  S
Zr410       O422   2.437       .  S
Zr410       O423   2.449       .  S
Zr410       O416   2.403       .  S
Zr410       O417   2.385       .  S
Zr411       O413   2.433       .  S
Zr411       O435   2.443       .  S
Zr411       O437   2.393       .  S
Zr411       O415   2.397       .  S
Zr411       O418   2.388       .  S
Zr412       O438   2.433       .  S
Zr412       O439   2.435       .  S
Zr412       O414   2.438       .  S
Zr412       O415   2.380       .  S
Zr412       O416   2.380       .  S
O413        H450   0.989       .  S
O414        H445   0.990       .  S
O414        H459   0.990       .  S
O416        H442   0.964       .  S
O417       Zr427   2.372       .  S
O418       Zr427   2.372       .  S
O418        H443   0.966       .  S
C419       C4724   1.480       .  S
C420       C4766   1.504       .  S
C421       C4738   1.493       .  S
O422        H458   0.990       .  S
O423        C425   1.285       .  A
O424        C425   1.284       .  A
C425       C4797   1.477       .  S
O426       Zr427   2.434       .  S
O426        H455   0.990       .  S
Zr427       O430   2.435       .  S
Zr427       O431   2.439       .  S
Zr427       O432   2.469       .  S
O428        C433   1.278       .  A
O429        H446   0.990       .  S
O429        H461   0.990       .  S
O430        H447   0.990       .  S
O431        H451   0.990       .  S
O431        H460   0.990       .  S
O432        C433   1.289       .  A
C433       C4752   1.479       .  S
O434        H453   0.990       .  S
O434        H457   0.990       .  S
O435        H449   0.989       .  S
O435        H456   0.990       .  S
O436        C440   1.279       .  A
O437        C440   1.267       .  A
O438        H448   0.989       .  S
O439        H452   0.990       .  S
C440       C4867   1.464       .  S
Zr463       O464   2.435       .  S
Zr463       O465   2.434       .  S
Zr463       O466   2.490       .  S
Zr463       O469   2.507       .  S
Zr463       O471   2.393       .  S
Zr463       O472   2.372       .  S
Zr463       O473   2.442       .  S
Zr463       O474   2.432       .  S
O464        H520   0.990       .  S
O464        H528   0.990       .  S
O465        C485   1.284       .  A
O466        C487   1.290       .  A
O467       Zr477   2.399       .  S
O467        C486   1.278       .  A
O468       Zr476   2.410       .  S
O468        C487   1.273       .  A
O469        C486   1.301       .  A
O470       Zr478   2.438       .  S
O470        C485   1.285       .  A
O471       Zr476   2.402       .  S
O471       Zr478   2.365       .  S
O472       Zr477   2.374       .  S
O472       Zr478   2.363       .  S
O472        H507   0.965       .  S
O473       Zr476   2.409       .  S
O473       Zr493   2.412       .  S
O473        H510   0.967       .  S
O474       Zr477   2.394       .  S
O474       Zr493   2.434       .  S
Zr475       O500   2.439       .  S
Zr475       O494   2.387       .  S
Zr475       O502   2.407       .  S
Zr475       O490   2.389       .  S
Zr475       O481   2.382       .  S
Zr475       O482   2.389       .  S
Zr475       O483   2.374       .  S
Zr475       O484   2.372       .  S
Zr476       O495   2.437   1_556  S
Zr476       O488   2.438       .  S
Zr476       O489   2.445   1_556  S
Zr476       O482   2.394       .  S
Zr476       O483   2.381       .  S
Zr477       O479   2.433       .  S
Zr477       O501   2.433       .  S
Zr477       O503   2.417       .  S
Zr477       O481   2.388       .  S
Zr477       O484   2.361       .  S
Zr478       O504   2.436       .  S
Zr478       O505   2.435       .  S
Zr478       O480   2.439       .  S
Zr478       O481   2.399       .  S
Zr478       O482   2.398       .  S
O479        H516   0.990       .  S
O480        H511   0.990       .  S
O480        H525   0.990       .  S
O482        H508   0.966       .  S
O483       Zr493   2.363       .  S
O484       Zr493   2.348       .  S
O484        H509   0.965       .  S
C485       C4727   1.474       .  S
C486       C4685   1.505       .  S
C487       C4696   1.500       .  S
O488        H524   0.990       .  S
O489        C491   1.285       .  A
O490        C491   1.279   1_556  A
C491       C4881   1.474       .  S
O492       Zr493   2.435       .  S
O492        H521   0.990       .  S
Zr493       O496   2.436   1_556  S
Zr493       O497   2.437       .  S
Zr493       O498   2.508       .  S
O494        C499   1.276       .  A
O495        H512   0.990       .  S
O495        H527   0.990       .  S
O496        H513   0.990       .  S
O497        H517   0.990       .  S
O497        H526   0.990       .  S
O498        C499   1.297       .  A
C499       C4710   1.486       .  S
O500        H519   0.990       .  S
O500        H523   0.990       .  S
O501        H515   0.989       .  S
O501        H522   0.990       .  S
O502        C506   1.284       .  A
O503        C506   1.281       .  A
O504        H514   0.990       .  S
O505        H518   0.990       .  S
C506       C4783   1.468       .  S
Zr529       O530   2.435       .  S
Zr529       O531   2.446       .  S
Zr529       O532   2.480       .  S
Zr529       O535   2.439       .  S
Zr529       O537   2.367       .  S
Zr529       O538   2.386       .  S
Zr529       O539   2.427       .  S
Zr529       O540   2.427       .  S
O530        H586   0.990       .  S
O530        H594   0.990       .  S
O531        C551   1.287       .  A
O532        C553   1.293       .  A
O533       Zr543   2.410       .  S
O533        C552   1.283       .  A
O534       Zr542   2.423       .  S
O534        C553   1.280       .  A
O535        C552   1.286       .  A
O536       Zr544   2.418       .  S
O536        C551   1.281       .  A
O537       Zr542   2.394       .  S
O537       Zr544   2.365       .  S
O538       Zr543   2.377       .  S
O538       Zr544   2.368       .  S
O538        H573   0.964       .  S
O539       Zr542   2.391       .  S
O539       Zr559   2.428       .  S
O539        H576   0.966       .  S
O540       Zr543   2.390       .  S
O540       Zr559   2.407       .  S
Zr541       O566   2.434       .  S
Zr541       O560   2.387       .  S
Zr541       O568   2.435       .  S
Zr541       O556   2.428       .  S
Zr541       O547   2.385       .  S
Zr541       O548   2.406       .  S
Zr541       O549   2.384       .  S
Zr541       O550   2.388       .  S
Zr542       O561   2.435       .  S
Zr542       O554   2.437       .  S
Zr542       O555   2.437       .  S
Zr542       O548   2.406       .  S
Zr542       O549   2.379       .  S
Zr543       O545   2.435       .  S
Zr543       O567   2.441       .  S
Zr543       O569   2.425       .  S
Zr543       O547   2.388       .  S
Zr543       O550   2.368       .  S
Zr544       O570   2.435       .  S
Zr544       O571   2.434       .  S
Zr544       O546   2.436       .  S
Zr544       O547   2.375       .  S
Zr544       O548   2.393       .  S
O545        H582   0.990       .  S
O546        H577   0.990       .  S
O546        H591   0.990       .  S
O548        H574   0.964       .  S
O549       Zr559   2.384       .  S
O550       Zr559   2.380       .  S
O550        H575   0.967       .  S
C551       C4612   1.473       .  S
C552       C4640   1.474       .  S
C553       C4657   1.484       .  S
O554        H590   0.991       .  S
O555        C557   1.286       .  A
O556        C557   1.282       .  A
C557       C4601   1.481       .  S
O558       Zr559   2.434       .  S
O558        H587   0.990       .  S
Zr559       O562   2.436       .  S
Zr559       O563   2.438       .  S
Zr559       O564   2.452       .  S
O560        C565   1.275       .  A
O561        H578   0.990       .  S
O561        H593   0.990       .  S
O562        H579   0.990       .  S
O563        H583   0.990       .  S
O563        H592   0.990       .  S
O564        C565   1.284       .  A
C565       C4671   1.463       .  S
O566        H585   0.990       .  S
O566        H589   0.989       .  S
O567        H581   0.990       .  S
O567        H588   0.990       .  S
O568        C572   1.282       .  A
O569        C572   1.283       .  A
O570        H580   0.990       .  S
O571        H584   0.990       .  S
C572       C4626   1.483       .  S
Zr595       O596   2.435       .  S
Zr595       O597   2.457       .  S
Zr595       O598   2.482       .  S
Zr595       O601   2.488       .  S
Zr595       O603   2.381       .  S
Zr595       O604   2.395       .  S
Zr595       O605   2.436       .  S
Zr595       O606   2.435       .  S
O596        H652   0.990       .  S
O596        H660   0.990       .  S
O597        C617   1.286       .  A
O598        C619   1.293       .  A
O599       Zr609   2.412       .  S
O599        C618   1.281       .  A
O600       Zr608   2.405       .  S
O600        C619   1.282       .  A
O601        C618   1.296       .  A
O602       Zr610   2.425       .  S
O602        C617   1.285       .  A
O603       Zr608   2.371       .  S
O603       Zr610   2.370       .  S
O604       Zr609   2.402       .  S
O604       Zr610   2.351       .  S
O604        H639   0.960       .  S
O605       Zr608   2.391       .  S
O605       Zr625   2.421       .  S
O605        H642   0.966       .  S
O606       Zr609   2.398       .  S
O606       Zr625   2.445       .  S
Zr607       O632   2.434       .  S
Zr607       O626   2.376       .  S
Zr607       O634   2.388       .  S
Zr607       O622   2.409       .  S
Zr607       O613   2.394       .  S
Zr607       O614   2.398       .  S
Zr607       O615   2.376       .  S
Zr607       O616   2.383       .  S
Zr608       O627   2.436       .  S
Zr608       O620   2.436       .  S
Zr608       O621   2.413       .  S
Zr608       O614   2.389       .  S
Zr608       O615   2.366       .  S
Zr609       O611   2.435       .  S
Zr609       O633   2.441       .  S
Zr609       O635   2.457       .  S
Zr609       O613   2.393       .  S
Zr609       O616   2.369       .  S
Zr610       O636   2.437       .  S
Zr610       O637   2.436       .  S
Zr610       O612   2.437       .  S
Zr610       O613   2.394       .  S
Zr610       O614   2.386       .  S
O611        H648   0.990       .  S
O612        H643   0.991       .  S
O612        H657   0.990       .  S
O614        H640   0.966       .  S
O615       Zr625   2.348       .  S
O616       Zr625   2.366       .  S
O616        H641   0.966       .  S
C617       C4615   1.480       .  S
C618       C4584   1.494       .  S
C619       C4573   1.492       .  S
O620        H656   0.990       .  S
O621        C623   1.285       .  A
O622        C623   1.279       .  A
C623       C4545   1.468       .  S
O624       Zr625   2.438       .  S
O624        H653   0.990       .  S
Zr625       O628   2.435       .  S
Zr625       O629   2.438       .  S
Zr625       O630   2.523       .  S
O626        C631   1.264       .  A
O627        H644   0.990       .  S
O627        H659   0.990       .  S
O628        H645   0.989       .  S
O629        H649   0.990       .  S
O629        H658   0.990       .  S
O630        C631   1.297       .  A
C631       C4556   1.493       .  S
O632        H651   0.990       .  S
O632        H655   0.990       .  S
O633        H647   0.990       .  S
O633        H654   0.990       .  S
O634        C638   1.271       .  A
O635        C638   1.286       .  A
O636        H646   0.990       .  S
O637        H650   0.990       .  S
C638       C4528   1.479       .  S
Zr661       O662   2.432       .  S
Zr661       O663   2.418       .  S
Zr661       O664   2.457       .  S
Zr661       O667   2.465       .  S
Zr661       O670   2.384       .  S
Zr661       O671   2.424       .  S
Zr661       O672   2.416       .  S
Zr661       O669   2.273       .  S
O662        H718   0.990       .  S
O662        H726   0.990       .  S
O663        C683   1.279       .  A
O664        C685   1.288       .  A
O665       Zr675   2.421       .  S
O665        C684   1.282       .  A
O666       Zr674   2.423       .  S
O666        C685   1.283       .  A
O667        C684   1.290       .  A
O668       Zr676   2.425       .  S
O668        C683   1.287       .  A
O669       Zr674   2.288       .  S
O669       Zr676   2.277       .  S
O670       Zr675   2.388       .  S
O670       Zr676   2.364       .  S
O670        H705   0.963       .  S
O671       Zr674   2.403       .  S
O671       Zr691   2.434       .  S
O671        H708   0.964       .  S
O672       Zr675   2.400       .  S
O672       Zr691   2.426       .  S
Zr673       O698   2.439       .  S
Zr673       O692   2.363       .  S
Zr673       O700   2.387       .  S
Zr673       O688   2.386       .  S
Zr673       O679   2.390       .  S
Zr673       O680   2.387       .  S
Zr673       O681   2.374       .  S
Zr673       O682   2.372       .  S
Zr674       O693   2.438   1_545  S
Zr674       O686   2.440   1_545  S
Zr674       O687   2.457       .  S
Zr674       O680   2.397       .  S
Zr674       O681   2.369       .  S
Zr675       O677   2.434       .  S
Zr675       O699   2.436       .  S
Zr675       O701   2.445       .  S
Zr675       O679   2.389       .  S
Zr675       O682   2.369       .  S
Zr676       O702   2.437       .  S
Zr676       O703   2.439       .  S
Zr676       O678   2.442       .  S
Zr676       O679   2.381       .  S
Zr676       O680   2.394       .  S
O677        H714   0.990       .  S
O678        H709   0.990       .  S
O678        H723   0.989       .  S
O680        H706   0.962       .  S
O681       Zr691   2.374       .  S
O682       Zr691   2.358       .  S
O682        H707   0.965       .  S
C683       C4629   1.474       .  S
C684       C4503   1.478       .  S
C685       C4514   1.488       .  S
O686        H722   0.990       .  S
O687        C689   1.291       .  A
O688        C689   1.273       .  A
C689       C4475   1.481   1_545  S
O690       Zr691   2.434       .  S
O690        H719   0.990       .  S
Zr691       O694   2.435       .  S
Zr691       O695   2.437       .  S
Zr691       O696   2.504       .  S
O692        C697   1.272       .  A
O693        H710   0.990       .  S
O693        H725   0.990       .  S
O694        H711   0.990   1_545  S
O695        H715   0.990       .  S
O695        H724   0.990       .  S
O696        C697   1.297       .  A
C697       C4489   1.475       .  S
O698        H717   0.990       .  S
O698        H721   0.990       .  S
O699        H713   0.990       .  S
O699        H720   0.990       .  S
O700        C704   1.279       .  A
O701        C704   1.288       .  A
O702        H712   0.990       .  S
O703        H716   0.990       .  S
C704       C4542   1.471       .  S
Zr727       O728   2.431       .  S
Zr727       O729   2.406       .  S
Zr727       O730   2.518       .  S
Zr727       O733   2.497       .  S
Zr727       O735   2.364       .  S
Zr727       O736   2.381       .  S
Zr727       O737   2.433       .  S
Zr727       O738   2.434       .  S
O728        H784   0.990       .  S
O728        H792   0.990       .  S
O729        C749   1.280       .  A
O730        C751   1.299       .  A
O731       Zr741   2.407       .  S
O731        C750   1.278       .  A
O732       Zr740   2.410       .  S
O732        C751   1.276       .  A
O733        C750   1.296       .  A
O734       Zr742   2.453       .  S
O734        C749   1.288       .  A
O735       Zr740   2.369       .  S
O735       Zr742   2.364       .  S
O736       Zr741   2.369       .  S
O736       Zr742   2.356       .  S
O736        H771   0.963       .  S
O737       Zr740   2.378       .  S
O737       Zr757   2.440       .  S
O737        H774   0.966       .  S
O738       Zr741   2.386       .  S
O738       Zr757   2.442       .  S
Zr739       O764   2.440       .  S
Zr739       O758   2.385       .  S
Zr739       O766   2.472       .  S
Zr739       O754   2.464       .  S
Zr739       O745   2.399       .  S
Zr739       O746   2.408       .  S
Zr739       O747   2.379       .  S
Zr739       O748   2.383       .  S
Zr740       O759   2.441       .  S
Zr740       O752   2.435       .  S
Zr740       O753   2.365       .  S
Zr740       O746   2.405       .  S
Zr740       O747   2.378       .  S
Zr741       O743   2.434       .  S
Zr741       O765   2.439       .  S
Zr741       O767   2.386       .  S
Zr741       O745   2.400       .  S
Zr741       O748   2.381       .  S
Zr742       O768   2.437       .  S
Zr742       O769   2.438       .  S
Zr742       O744   2.437       .  S
Zr742       O745   2.404       .  S
Zr742       O746   2.395       .  S
O743        H780   0.990   1_545  S
O744        H775   0.990       .  S
O744        H789   0.989       .  S
O746        H772   0.967       .  S
O747       Zr757   2.350       .  S
O748       Zr757   2.342       .  S
O748        H773   0.965       .  S
C749       C4598   1.465       .  S
C750       C4458   1.484       .  S
C751       C4447   1.496       .  S
O752        H788   0.990       .  S
O753        C755   1.272       .  A
O754        C755   1.292       .  A
C755       C4531   1.466       .  S
O756       Zr757   2.434       .  S
O756        H785   0.990       .  S
Zr757       O760   2.435       .  S
Zr757       O761   2.436   1_545  S
Zr757       O762   2.539       .  S
O758        C763   1.276       .  A
O759        H776   0.990       .  S
O759        H791   0.990       .  S
O760        H777   0.990       .  S
O761        H781   0.990       .  S
O761        H790   0.990       .  S
O762        C763   1.304       .  A
C763       C4433   1.501       .  S
O764        H783   0.990       .  S
O764        H787   0.990       .  S
O765        H779   0.990       .  S
O765        H786   0.990       .  S
O766        C770   1.296       .  A
O767        C770   1.274       .  A
O768        H778   0.990       .  S
O769        H782   0.990       .  S
C770       C4472   1.481       .  S
Zr793       O794   2.442       .  S
Zr793       O795   2.468       .  S
Zr793       O796   2.461       .  S
Zr793       O799   2.460       .  S
Zr793       O801   2.385       .  S
Zr793       O802   2.389       .  S
Zr793       O803   2.420       .  S
Zr793       O804   2.408       .  S
O794        H850   0.990       .  S
O794        H858   0.991       .  S
O795        C815   1.292       .  A
O796        C817   1.288       .  A
O797       Zr807   2.474       .  S
O797        C816   1.294       .  A
O798       Zr806   2.438       .  S
O798        C817   1.283       .  A
O799        C816   1.289       .  A
O800       Zr808   2.442       .  S
O800        C815   1.281       .  A
O801       Zr806   2.411       .  S
O801       Zr808   2.385       .  S
O802       Zr807   2.403       .  S
O802       Zr808   2.384       .  S
O802        H837   0.966       .  S
O803       Zr806   2.405       .  S
O803       Zr823   2.400       .  S
O803        H840   0.965       .  S
O804       Zr807   2.394       .  S
O804       Zr823   2.391       .  S
Zr805       O830   2.437       .  S
Zr805       O824   2.448       .  S
Zr805       O832   2.450       .  S
Zr805       O820   2.465       .  S
Zr805       O811   2.418       .  S
Zr805       O812   2.415       .  S
Zr805       O813   2.382       .  S
Zr805       O814   2.389       .  S
Zr806       O825   2.437       .  S
Zr806       O818   2.435       .  S
Zr806       O819   2.457       .  S
Zr806       O812   2.399       .  S
Zr806       O813   2.394       .  S
Zr807       O809   2.435       .  S
Zr807       O831   2.435       .  S
Zr807       O833   2.470       .  S
Zr807       O811   2.407       .  S
Zr807       O814   2.399       .  S
Zr808       O834   2.435       .  S
Zr808       O835   2.434       .  S
Zr808       O810   2.438       .  S
Zr808       O811   2.411       .  S
Zr808       O812   2.411       .  S
O809        H846   0.990       .  S
O810        H841   0.990       .  S
O810        H855   0.990       .  S
O812        H838   0.965       .  S
O813       Zr823   2.379       .  S
O814       Zr823   2.372       .  S
O814        H839   0.967       .  S
C815       C4682   1.504       .  S
C816       C4808   1.507       .  S
C817       C4741   1.479       .  S
O818        H854   0.990       .  S
O819        C821   1.291       .  A
O820        C821   1.290       .  A
C821       C4444   1.514       .  S
O822       Zr823   2.438       .  S
O822        H851   0.991       .  S
Zr823       O826   2.435       .  S
Zr823       O827   2.438       .  S
Zr823       O828   2.439       .  S
O824        C829   1.285       .  A
O825        H842   0.990       .  S
O825        H857   0.990       .  S
O826        H843   0.990       .  S
O827        H847   0.990       .  S
O827        H856   0.990       .  S
O828        C829   1.288       .  A
C829       C4654   1.505       .  S
O830        H849   0.991       .  S
O830        H853   0.990       .  S
O831        H845   0.990       .  S
O831        H852   0.990       .  S
O832        C836   1.287       .  A
O833        C836   1.291       .  A
O834        H844   0.990       .  S
O835        H848   0.990       .  S
C836       C4587   1.498       .  S
Zr859       O860   2.440       .  S
Zr859       O861   2.378       .  S
Zr859       O862   2.430       .  S
Zr859       O865   2.433       .  S
Zr859       O867   2.383       .  S
Zr859       O868   2.406       .  S
Zr859       O869   2.393       .  S
Zr859       O870   2.399       .  S
O860        H916   0.990       .  S
O860        H924   0.991       .  S
O861        C881   1.275       .  A
O862        C883   1.287       .  A
O863       Zr873   2.400       .  S
O863        C882   1.267       .  A
O864       Zr872   2.411       .  S
O864        C883   1.277       .  A
O865        C882   1.278       .  A
O866       Zr874   2.513       .  S
O866        C881   1.297       .  A
O867       Zr872   2.387       .  S
O867       Zr874   2.364       .  S
O868       Zr873   2.376       .  S
O868       Zr874   2.343       .  S
O868        H903   0.963       .  S
O869       Zr872   2.403       .  S
O869       Zr889   2.402       .  S
O869        H906   0.965       .  S
O870       Zr873   2.403       .  S
O870       Zr889   2.381       .  S
Zr871       O896   2.435       .  S
Zr871       O890   2.462       .  S
Zr871       O898   2.500       .  S
Zr871       O886   2.477       .  S
Zr871       O878   2.455       .  S
Zr871       O879   2.393       .  S
Zr871       O880   2.371       .  S
Zr871       O877   2.342       .  S
Zr872       O891   2.438       .  S
Zr872       O884   2.433       .  S
Zr872       O885   2.394       .  S
Zr872       O878   2.419       .  S
Zr872       O879   2.394       .  S
Zr873       O875   2.433       .  S
Zr873       O897   2.440       .  S
Zr873       O899   2.408       .  S
Zr873       O880   2.384       .  S
Zr873       O877   2.276       .  S
Zr874       O900   2.438       .  S
Zr874       O901   2.436       .  S
Zr874       O876   2.438       .  S
Zr874       O878   2.417       .  S
Zr874       O877   2.344       .  S
O875        H912   0.990       .  S
O876        H907   0.990       .  S
O876        H921   0.990       .  S
O878        H904   0.965       .  S
O879       Zr889   2.357       .  S
O880       Zr889   2.364       .  S
O880        H905   1.010       .  S
C881       C4416   1.484       .  S
C882       C4360   1.458       .  S
C883       C4377   1.470       .  S
O884        H920   0.990       .  S
O885        C887   1.266       .  A
O886        C887   1.286       .  A
C887       C4388   1.494       .  S
O888       Zr889   2.433       .  S
O888        H917   0.990       .  S
Zr889       O892   2.434       .  S
Zr889       O893   2.436       .  S
Zr889       O894   2.436       .  S
O890        C895   1.289       .  A
O891        H908   0.990       .  S
O891        H923   0.989       .  S
O892        H909   0.990       .  S
O893        H913   0.990       .  S
O893        H922   0.990       .  S
O894        C895   1.286       .  A
C895       C4346   1.490       .  S
O896        H915   0.990       .  S
O896        H919   0.990       .  S
O897        H911   0.990       .  S
O897        H918   0.990       .  S
O898        C902   1.297       .  A
O899        C902   1.280       .  A
O900        H910   0.990       .  S
O901        H914   0.990       .  S
C902       C4402   1.489       .  S
Zr925       O926   2.434       .  S
Zr925       O927   2.445       .  S
Zr925       O928   2.478       .  S
Zr925       O931   2.528       .  S
Zr925       O933   2.389       .  S
Zr925       O934   2.375       .  S
Zr925       O935   2.447       .  S
Zr925       O936   2.418       .  S
O926        H982   0.990       .  S
O926        H990   0.990       .  S
O927        C947   1.288       .  A
O928        C949   1.290       .  A
O929       Zr939   2.394       .  S
O929        C948   1.277       .  A
O930       Zr938   2.406       .  S
O930        C949   1.271       .  A
O931        C948   1.305       .  A
O932       Zr940   2.410       .  S
O932        C947   1.280       .  A
O933       Zr938   2.391       .  S
O933       Zr940   2.359       .  S
O934       Zr939   2.382       .  S
O934       Zr940   2.386       .  S
O934        H969   0.966       .  S
O935       Zr938   2.412       .  S
O935       Zr955   2.415       .  S
O935        H972   0.966       .  S
O936       Zr939   2.384       .  S
O936       Zr955   2.425       .  S
Zr937       O962   2.441       .  S
Zr937       O956   2.383       .  S
Zr937       O964   2.437       .  S
Zr937       O952   2.411       .  S
Zr937       O943   2.389       .  S
Zr937       O944   2.396       .  S
Zr937       O945   2.379       .  S
Zr937       O946   2.388       .  S
Zr938       O957   2.439       .  S
Zr938       O950   2.437       .  S
Zr938       O951   2.430       .  S
Zr938       O944   2.398       .  S
Zr938       O945   2.377       .  S
Zr939       O941   2.433       .  S
Zr939       O963   2.436       .  S
Zr939       O965   2.399       .  S
Zr939       O943   2.398       .  S
Zr939       O946   2.377       .  S
Zr940       O966   2.434       .  S
Zr940       O967   2.437       .  S
Zr940       O942   2.440       .  S
Zr940       O943   2.376       .  S
Zr940       O944   2.397       .  S
O941        H978   0.989       .  S
O942        H973   0.990       .  S
O942        H987   0.990       .  S
O944        H970   0.965       .  S
O945       Zr955   2.360       .  S
O946       Zr955   2.354       .  S
O946        H971   0.965       .  S
C947       C4349   1.469       .  S
C948       C4304   1.517       .  S
C949       C4318   1.493       .  S
O950        H986   0.990       .  S
O951        C953   1.285       .  A
O952        C953   1.281       .  A
C953       C4290   1.472       .  S
O954       Zr955   2.437       .  S
O954        H983   0.991       .  S
Zr955       O958   2.438       .  S
Zr955       O959   2.437       .  S
Zr955       O960   2.487       .  S
O956        C961   1.275       .  A
O957        H974   0.990       .  S
O957        H989   0.990       .  S
O958        H975   0.990       .  S
O959        H979   0.990       .  S
O959        H988   0.990       .  S
O960        C961   1.294       .  A
C961       C4335   1.471       .  S
O962        H981   0.990       .  S
O962        H985   0.990       .  S
O963        H977   0.990       .  S
O963        H984   0.990       .  S
O964        C968   1.283       .  A
O965        C968   1.267       .  A
O966        H976   0.989       .  S
O967        H980   0.990       .  S
C968       C4276   1.459       .  S
Zr991       O992   2.434   1_565  S
Zr991       O993   2.469       .  S
Zr991       O994   2.462       .  S
Zr991       O997   2.480       .  S
Zr991       O999   2.383       .  S
Zr991      O1000   2.380       .  S
Zr991      O1001   2.447       .  S
Zr991      O1002   2.427       .  S
O992       H1048   0.990   1_545  S
O992       H1056   0.990       .  S
O993       C1013   1.289       .  A
O994       C1015   1.286       .  A
O995      Zr1005   2.394       .  S
O995       C1014   1.277       .  A
O996      Zr1004   2.409       .  S
O996       C1015   1.269       .  A
O997       C1014   1.295       .  A
O998      Zr1006   2.414       .  S
O998       C1013   1.284       .  A
O999      Zr1004   2.393       .  S
O999      Zr1006   2.348       .  S
O1000     Zr1005   2.393       .  S
O1000     Zr1006   2.383       .  S
O1000      H1035   0.966       .  S
O1001     Zr1004   2.409       .  S
O1001     Zr1021   2.421       .  S
O1001      H1038   0.965       .  S
O1002     Zr1005   2.386       .  S
O1002     Zr1021   2.429       .  S
Zr1003     O1028   2.439       .  S
Zr1003     O1022   2.353       .  S
Zr1003     O1030   2.413       .  S
Zr1003     O1018   2.403       .  S
Zr1003     O1009   2.393       .  S
Zr1003     O1010   2.389       .  S
Zr1003     O1011   2.375       .  S
Zr1003     O1012   2.392       .  S
Zr1004     O1023   2.434       .  S
Zr1004     O1016   2.436       .  S
Zr1004     O1017   2.434       .  S
Zr1004     O1010   2.400       .  S
Zr1004     O1011   2.376       .  S
Zr1005     O1007   2.434       .  S
Zr1005     O1029   2.437       .  S
Zr1005     O1031   2.411       .  S
Zr1005     O1009   2.397       .  S
Zr1005     O1012   2.378       .  S
Zr1006     O1032   2.435       .  S
Zr1006     O1033   2.438       .  S
Zr1006     O1008   2.438       .  S
Zr1006     O1009   2.365       .  S
Zr1006     O1010   2.402       .  S
O1007      H1044   0.989       .  S
O1008      H1039   0.990       .  S
O1008      H1053   0.990       .  S
O1010      H1036   0.967       .  S
O1011     Zr1021   2.365       .  S
O1012     Zr1021   2.353       .  S
O1012      H1037   0.965       .  S
C1013      C4220   1.496       .  S
C1014      C4248   1.490       .  S
C1015      C4262   1.481       .  S
O1016      H1052   0.990       .  S
O1017      C1019   1.286       .  A
O1018      C1019   1.278       .  A
C1019      C4293   1.474       .  S
O1020     Zr1021   2.434       .  S
O1020      H1049   0.990       .  S
Zr1021     O1024   2.436       .  S
Zr1021     O1025   2.438       .  S
Zr1021     O1026   2.497       .  S
O1022      C1027   1.270       .  A
O1023      H1040   0.989       .  S
O1023      H1055   0.990       .  S
O1024      H1041   0.990       .  S
O1025      H1045   0.990       .  S
O1025      H1054   0.990       .  S
O1026      C1027   1.294       .  A
C1027      C4234   1.469       .  S
O1028      H1047   0.990       .  S
O1028      H1051   0.990       .  S
O1029      H1043   0.990       .  S
O1029      H1050   0.990       .  S
O1030      C1034   1.278       .  A
O1031      C1034   1.268       .  A
O1032      H1042   0.990       .  S
O1033      H1046   0.990       .  S
C1034      C4363   1.456       .  S
Zr1057     O1058   2.439       .  S
Zr1057     O1059   2.384       .  S
Zr1057     O1060   2.429       .  S
Zr1057     O1063   2.453       .  S
Zr1057     O1065   2.384       .  S
Zr1057     O1066   2.400       .  S
Zr1057     O1067   2.396       .  S
Zr1057     O1068   2.393       .  S
O1058      H1114   0.990       .  S
O1058      H1122   0.990       .  S
O1059      C1079   1.274       .  A
O1060      C1081   1.287       .  A
O1061     Zr1071   2.396       .  S
O1061      C1080   1.269       .  A
O1062     Zr1070   2.417       .  S
O1062      C1081   1.279       .  A
O1063      C1080   1.281       .  A
O1064     Zr1072   2.515       .  S
O1064      C1079   1.299       .  A
O1065     Zr1070   2.386       .  S
O1065     Zr1072   2.365       .  S
O1066     Zr1071   2.387       .  S
O1066     Zr1072   2.353       .  S
O1066      H1101   0.966       .  S
O1067     Zr1070   2.400       .  S
O1067     Zr1087   2.380       .  S
O1067      H1104   0.965       .  S
O1068     Zr1071   2.404       .  S
O1068     Zr1087   2.370       .  S
Zr1069     O1094   2.434   1_565  S
Zr1069     O1088   2.463       .  S
Zr1069     O1096   2.492       .  S
Zr1069     O1084   2.476       .  S
Zr1069     O1075   2.434       .  S
Zr1069     O1076   2.452       .  S
Zr1069     O1077   2.386       .  S
Zr1069     O1078   2.375       .  S
Zr1070     O1089   2.433       .  S
Zr1070     O1082   2.437       .  S
Zr1070     O1083   2.412       .  S
Zr1070     O1076   2.402       .  S
Zr1070     O1077   2.390       .  S
Zr1071     O1073   2.436       .  S
Zr1071     O1095   2.435       .  S
Zr1071     O1097   2.412       .  S
Zr1071     O1075   2.377       .  S
Zr1071     O1078   2.378       .  S
Zr1072     O1098   2.438       .  S
Zr1072     O1099   2.436       .  S
Zr1072     O1074   2.436       .  S
Zr1072     O1075   2.435       .  S
Zr1072     O1076   2.426       .  S
O1073      H1110   0.989       .  S
O1074      H1105   0.990       .  S
O1074      H1119   0.990       .  S
O1076      H1102   0.967       .  S
O1077     Zr1087   2.354       .  S
O1078     Zr1087   2.383       .  S
O1078      H1103   0.961       .  S
C1079      C4178   1.487       .  S
C1080      C4279   1.471       .  S
C1081      C4374   1.469       .  S
O1082      H1118   0.990       .  S
O1083      C1085   1.274       .  A
O1084      C1085   1.288       .  A
C1085      C4192   1.495       .  S
O1086     Zr1087   2.436       .  S
O1086      H1115   0.990       .  S
Zr1087     O1090   2.434       .  S
Zr1087     O1091   2.434       .  S
Zr1087     O1092   2.407       .  S
O1088      C1093   1.289       .  A
O1089      H1106   0.990       .  S
O1089      H1121   0.989       .  S
O1090      H1107   0.990       .  S
O1091      H1111   0.989       .  S
O1091      H1120   0.989       .  S
O1092      C1093   1.279       .  A
C1093      C4223   1.472       .  S
O1094      H1113   0.990       .  S
O1094      H1117   0.990       .  S
O1095      H1109   0.990       .  S
O1095      H1116   0.990       .  S
O1096      C1100   1.298       .  A
O1097      C1100   1.280       .  A
O1098      H1108   0.990       .  S
O1099      H1112   0.991       .  S
C1100      C4206   1.505       .  S
Zr1123     O1124   2.439       .  S
Zr1123     O1125   2.413       .  S
Zr1123     O1126   2.426       .  S
Zr1123     O1129   2.445       .  S
Zr1123     O1131   2.374       .  S
Zr1123     O1132   2.401       .  S
Zr1123     O1133   2.402       .  S
Zr1123     O1134   2.406       .  S
O1124      H1180   0.990       .  S
O1124      H1188   0.991       .  S
O1125      C1145   1.262       .  A
O1126      C1147   1.287       .  A
O1127     Zr1137   2.431       .  S
O1127      C1146   1.285       .  A
O1128     Zr1136   2.464       .  S
O1128      C1147   1.290       .  A
O1129      C1146   1.289       .  A
O1130     Zr1138   2.455       .  S
O1130      C1145   1.276       .  A
O1131     Zr1136   2.378       .  S
O1131     Zr1138   2.394       .  S
O1132     Zr1137   2.385       .  S
O1132     Zr1138   2.388       .  S
O1132      H1167   0.965       .  S
O1133     Zr1136   2.397       .  S
O1133     Zr1153   2.370       .  S
O1133      H1170   0.962       .  S
O1134     Zr1137   2.393       .  S
O1134     Zr1153   2.381       .  S
Zr1135     O1160   2.434       .  S
Zr1135     O1154   2.461       .  S
Zr1135     O1162   2.443       .  S
Zr1135     O1150   2.466       .  S
Zr1135     O1141   2.427       .  S
Zr1135     O1142   2.420       .  S
Zr1135     O1143   2.380       .  S
Zr1135     O1144   2.381       .  S
Zr1136     O1155   2.434       .  S
Zr1136     O1148   2.435       .  S
Zr1136     O1149   2.402       .  S
Zr1136     O1142   2.420       .  S
Zr1136     O1143   2.401       .  S
Zr1137     O1139   2.431       .  S
Zr1137     O1161   2.435       .  S
Zr1137     O1163   2.432       .  S
Zr1137     O1141   2.391       .  S
Zr1137     O1144   2.383       .  S
Zr1138     O1164   2.436       .  S
Zr1138     O1165   2.436       .  S
Zr1138     O1140   2.436       .  S
Zr1138     O1141   2.412       .  S
Zr1138     O1142   2.415       .  S
O1139      H1176   0.990       .  S
O1140      H1171   0.990       .  S
O1140      H1185   0.990       .  S
O1142      H1168   0.966       .  S
O1143     Zr1153   2.379       .  S
O1144     Zr1153   2.359       .  S
O1144      H1169   0.966       .  S
C1145      C4164   1.472       .  S
C1146      C4108   1.490       .  S
C1147      C4094   1.491       .  S
O1148      H1184   0.990       .  S
O1149      C1151   1.273       .  A
O1150      C1151   1.290       .  A
C1151      C4136   1.475       .  S
O1152     Zr1153   2.437       .  S
O1152      H1181   0.990       .  S
Zr1153     O1156   2.437       .  S
Zr1153     O1157   2.437       .  S
Zr1153     O1158   2.404       .  S
O1154      C1159   1.289       .  A
O1155      H1172   0.989       .  S
O1155      H1187   0.990       .  S
O1156      H1173   0.990       .  S
O1157      H1177   0.989       .  S
O1157      H1186   0.990       .  S
O1158      C1159   1.279       .  A
C1159      C4122   1.476       .  S
O1160      H1179   0.990       .  S
O1160      H1183   0.990       .  S
O1161      H1175   0.990       .  S
O1161      H1182   0.990       .  S
O1162      C1166   1.287       .  A
O1163      C1166   1.287       .  A
O1164      H1174   0.990       .  S
O1165      H1178   0.990       .  S
C1166      C4150   1.491       .  S
Zr1189     O1190   2.432       .  S
Zr1189     O1191   2.418       .  S
Zr1189     O1192   2.491       .  S
Zr1189     O1195   2.520       .  S
Zr1189     O1197   2.384       .  S
Zr1189     O1198   2.388       .  S
Zr1189     O1199   2.435       .  S
Zr1189     O1200   2.419       .  S
O1190      H1246   0.990       .  S
O1190      H1254   0.990       .  S
O1191      C1211   1.283       .  A
O1192      C1213   1.297       .  A
O1193     Zr1203   2.401       .  S
O1193      C1212   1.278       .  A
O1194     Zr1202   2.411       .  S
O1194      C1213   1.280       .  A
O1195      C1212   1.302       .  A
O1196     Zr1204   2.418       .  S
O1196      C1211   1.282       .  A
O1197     Zr1202   2.384       .  S
O1197     Zr1204   2.364       .  S
O1198     Zr1203   2.395       .  S
O1198     Zr1204   2.375       .  S
O1198      H1233   0.966       .  S
O1199     Zr1202   2.405       .  S
O1199     Zr1219   2.422       .  S
O1199      H1236   0.965       .  S
O1200     Zr1203   2.401       .  S
O1200     Zr1219   2.424       .  S
Zr1201     O1226   2.436       .  S
Zr1201     O1220   2.343       .  S
Zr1201     O1228   2.394       .  S
Zr1201     O1216   2.401       .  S
Zr1201     O1207   2.381       .  S
Zr1201     O1208   2.381       .  S
Zr1201     O1209   2.371       .  S
Zr1201     O1210   2.369       .  S
Zr1202     O1221   2.433       .  S
Zr1202     O1214   2.426       .  S
Zr1202     O1215   2.454       .  S
Zr1202     O1208   2.400       .  S
Zr1202     O1209   2.364       .  S
Zr1203     O1205   2.432       .  S
Zr1203     O1227   2.437       .  S
Zr1203     O1229   2.439       .  S
Zr1203     O1207   2.386       .  S
Zr1203     O1210   2.368       .  S
Zr1204     O1230   2.438       .  S
Zr1204     O1231   2.436       .  S
Zr1204     O1206   2.439       .  S
Zr1204     O1207   2.392       .  S
Zr1204     O1208   2.388       .  S
O1205      H1242   0.990       .  S
O1206      H1237   0.990       .  S
O1206      H1251   0.990       .  S
O1208      H1234   0.965       .  S
O1209     Zr1219   2.363       .  S
O1210     Zr1219   2.355       .  S
O1210      H1235   0.965       .  S
C1211      C4111   1.473       .  S
C1212      C4052   1.495       .  S
C1213      C4066   1.500       .  S
O1214      H1250   0.990       .  S
O1215      C1217   1.285       .  A
O1216      C1217   1.275       .  A
C1217      C4027   1.484       .  S
O1218     Zr1219   2.435       .  S
O1218      H1247   0.990       .  S
Zr1219     O1222   2.433       .  S
Zr1219     O1223   2.437       .  S
Zr1219     O1224   2.501       .  S
O1220      C1225   1.270       .  A
O1221      H1238   0.990       .  S
O1221      H1253   0.990       .  S
O1222      H1239   0.990       .  S
O1223      H1243   0.990       .  S
O1223      H1252   0.990       .  S
O1224      C1225   1.296       .  A
C1225      C4080   1.468       .  S
O1226      H1245   0.990       .  S
O1226      H1249   0.990       .  S
O1227      H1241   0.990       .  S
O1227      H1248   0.990       .  S
O1228      C1232   1.281       .  A
O1229      C1232   1.284       .  A
O1230      H1240   0.990       .  S
O1231      H1244   0.990       .  S
C1232      C4041   1.478       .  S
Zr1255     O1256   2.432       .  S
Zr1255     O1257   2.413       .  S
Zr1255     O1258   2.505       .  S
Zr1255     O1261   2.491       .  S
Zr1255     O1263   2.368       .  S
Zr1255     O1264   2.384       .  S
Zr1255     O1265   2.431       .  S
Zr1255     O1266   2.428       .  S
O1256      H1312   0.990       .  S
O1256      H1320   0.990       .  S
O1257      C1277   1.280       .  A
O1258      C1279   1.298       .  A
O1259     Zr1269   2.387       .  S
O1259      C1278   1.279       .  A
O1260     Zr1268   2.405       .  S
O1260      C1279   1.272       .  A
O1261      C1278   1.295       .  A
O1262     Zr1270   2.445       .  S
O1262      C1277   1.286       .  A
O1263     Zr1268   2.385       .  S
O1263     Zr1270   2.358       .  S
O1264     Zr1269   2.372       .  S
O1264     Zr1270   2.358       .  S
O1264      H1299   0.964       .  S
O1265     Zr1268   2.405       .  S
O1265     Zr1285   2.435       .  S
O1265      H1302   0.966       .  S
O1266     Zr1269   2.391       .  S
O1266     Zr1285   2.425       .  S
Zr1267     O1292   2.436       .  S
Zr1267     O1286   2.388       .  S
Zr1267     O1294   2.466       .  S
Zr1267     O1282   2.433       .  S
Zr1267     O1273   2.402       .  S
Zr1267     O1274   2.401       .  S
Zr1267     O1275   2.384       .  S
Zr1267     O1276   2.393       .  S
Zr1268     O1287   2.433   1_455  S
Zr1268     O1280   2.428       .  S
Zr1268     O1281   2.417   1_455  S
Zr1268     O1274   2.412       .  S
Zr1268     O1275   2.377       .  S
Zr1269     O1271   2.436       .  S
Zr1269     O1293   2.436       .  S
Zr1269     O1295   2.401       .  S
Zr1269     O1273   2.391       .  S
Zr1269     O1276   2.354       .  S
Zr1270     O1296   2.438       .  S
Zr1270     O1297   2.436       .  S
Zr1270     O1272   2.438       .  S
Zr1270     O1273   2.400       .  S
Zr1270     O1274   2.393       .  S
O1271      H1308   0.990       .  S
O1272      H1303   0.990       .  S
O1272      H1317   0.990       .  S
O1274      H1300   0.967       .  S
O1275     Zr1285   2.387       .  S
O1276     Zr1285   2.366       .  S
O1276      H1301   0.962       .  S
C1277      C4097   1.465       .  S
C1278      C3996   1.488       .  S
C1279      C3982   1.502       .  S
O1280      H1316   0.990       .  S
O1281      C1283   1.280       .  A
O1282      C1283   1.290   1_455  A
C1283      C3968   1.478       .  S
O1284     Zr1285   2.435       .  S
O1284      H1313   0.990       .  S
Zr1285     O1288   2.437   1_455  S
Zr1285     O1289   2.437       .  S
Zr1285     O1290   2.496       .  S
O1286      C1291   1.264       .  A
O1287      H1304   0.990       .  S
O1287      H1319   0.990       .  S
O1288      H1305   0.990       .  S
O1289      H1309   0.990       .  S
O1289      H1318   0.990       .  S
O1290      C1291   1.280       .  A
C1291      C4013   1.500       .  S
O1292      H1311   0.990       .  S
O1292      H1315   0.990       .  S
O1293      H1307   0.990       .  S
O1293      H1314   0.990       .  S
O1294      C1298   1.290       .  A
O1295      C1298   1.283       .  A
O1296      H1306   0.990       .  S
O1297      H1310   0.990       .  S
C1298      C4024   1.486       .  S
Zr1321     O1322   2.434       .  S
Zr1321     O1323   2.474       .  S
Zr1321     O1324   2.473       .  S
Zr1321     O1327   2.474       .  S
Zr1321     O1329   2.379       .  S
Zr1321     O1330   2.406       .  S
Zr1321     O1331   2.445       .  S
Zr1321     O1332   2.449       .  S
O1322      H1378   0.990       .  S
O1322      H1386   0.990       .  S
O1323      C1343   1.289       .  A
O1324      C1345   1.291       .  A
O1325     Zr1335   2.408       .  S
O1325      C1344   1.272       .  A
O1326     Zr1334   2.430       .  S
O1326      C1345   1.284       .  A
O1327      C1344   1.286       .  A
O1328     Zr1336   2.410       .  S
O1328      C1343   1.282       .  A
O1329     Zr1334   2.376       .  S
O1329     Zr1336   2.375       .  S
O1330     Zr1335   2.399       .  S
O1330     Zr1336   2.360       .  S
O1330      H1365   0.928       .  S
O1331     Zr1334   2.393       .  S
O1331     Zr1351   2.436       .  S
O1331      H1368   0.966       .  S
O1332     Zr1335   2.404       .  S
O1332     Zr1351   2.437       .  S
Zr1333     O1358   2.440       .  S
Zr1333     O1352   2.382       .  S
Zr1333     O1360   2.406       .  S
Zr1333     O1348   2.397       .  S
Zr1333     O1339   2.379       .  S
Zr1333     O1340   2.398       .  S
Zr1333     O1341   2.366       .  S
Zr1333     O1342   2.377       .  S
Zr1334     O1353   2.442       .  S
Zr1334     O1346   2.435       .  S
Zr1334     O1347   2.421       .  S
Zr1334     O1340   2.402       .  S
Zr1334     O1341   2.368       .  S
Zr1335     O1337   2.435   1_455  S
Zr1335     O1359   2.437       .  S
Zr1335     O1361   2.431   1_455  S
Zr1335     O1339   2.384       .  S
Zr1335     O1342   2.389       .  S
Zr1336     O1362   2.438       .  S
Zr1336     O1363   2.438       .  S
Zr1336     O1338   2.436       .  S
Zr1336     O1339   2.392       .  S
Zr1336     O1340   2.387       .  S
O1337      H1374   0.990       .  S
O1338      H1369   0.990       .  S
O1338      H1383   0.990       .  S
O1340      H1366   0.963       .  S
O1341     Zr1351   2.323       .  S
O1342     Zr1351   2.373       .  S
O1342      H1367   0.963   1_455  S
C1343      C4125   1.485       .  S
C1344      C3926   1.502       .  S
C1345      C3943   1.500       .  S
O1346      H1382   0.990       .  S
O1347      C1349   1.281       .  A
O1348      C1349   1.280       .  A
C1349      C4038   1.467       .  S
O1350     Zr1351   2.433       .  S
O1350      H1379   0.990       .  S
Zr1351     O1354   2.434       .  S
Zr1351     O1355   2.437   1_455  S
Zr1351     O1356   2.542       .  S
O1352      C1357   1.277       .  A
O1353      H1370   0.990       .  S
O1353      H1385   0.990       .  S
O1354      H1371   0.990       .  S
O1355      H1375   0.990       .  S
O1355      H1384   0.990       .  S
O1356      C1357   1.303       .  A
C1357      C3954   1.510       .  S
O1358      H1377   0.990       .  S
O1358      H1381   0.990       .  S
O1359      H1373   0.990   1_455  S
O1359      H1380   0.990       .  S
O1360      C1364   1.280   1_455  A
O1361      C1364   1.286       .  A
O1362      H1372   0.990       .  S
O1363      H1376   0.990       .  S
C1364      C3971   1.476       .  S
Zr1387     O1388   2.446       .  S
Zr1387     O1389   2.439       .  S
Zr1387     O1390   2.457       .  S
Zr1387     O1393   2.439       .  S
Zr1387     O1395   2.383       .  S
Zr1387     O1396   2.399       .  S
Zr1387     O1397   2.413       .  S
Zr1387     O1398   2.396       .  S
O1388      H1444   0.991       .  S
O1388      H1452   0.989       .  S
O1389      C1409   1.282       .  A
O1390      C1411   1.286       .  A
O1391     Zr1401   2.443       .  S
O1391      C1410   1.288       .  A
O1392     Zr1400   2.440       .  S
O1392      C1411   1.286       .  A
O1393      C1410   1.286       .  A
O1394     Zr1402   2.415       .  S
O1394      C1409   1.280       .  A
O1395     Zr1400   2.408       .  S
O1395     Zr1402   2.392       .  S
O1396     Zr1401   2.401       .  S
O1396     Zr1402   2.376       .  S
O1396      H1431   0.966       .  S
O1397     Zr1400   2.404       .  S
O1397     Zr1417   2.373       .  S
O1397      H1434   0.964       .  S
O1398     Zr1401   2.397       .  S
O1398     Zr1417   2.381       .  S
Zr1399     O1424   2.438       .  S
Zr1399     O1418   2.483       .  S
Zr1399     O1426   2.437       .  S
Zr1399     O1414   2.493       .  S
Zr1399     O1405   2.416       .  S
Zr1399     O1406   2.416       .  S
Zr1399     O1407   2.379       .  S
Zr1399     O1408   2.383       .  S
Zr1400     O1419   2.435       .  S
Zr1400     O1412   2.436       .  S
Zr1400     O1413   2.454       .  S
Zr1400     O1406   2.400       .  S
Zr1400     O1407   2.411       .  S
Zr1401     O1403   2.434       .  S
Zr1401     O1425   2.436       .  S
Zr1401     O1427   2.475       .  S
Zr1401     O1405   2.392       .  S
Zr1401     O1408   2.391       .  S
Zr1402     O1428   2.437       .  S
Zr1402     O1429   2.436       .  S
Zr1402     O1404   2.439       .  S
Zr1402     O1405   2.400       .  S
Zr1402     O1406   2.378       .  S
O1403      H1440   0.990       .  S
O1404      H1435   0.990       .  S
O1404      H1449   0.990       .  S
O1406      H1432   0.962       .  S
O1407     Zr1417   2.399       .  S
O1408     Zr1417   2.377       .  S
O1408      H1433   0.966       .  S
C1409      C3999   1.479       .  S
C1410      C4069   1.480       .  S
C1411      C4167   1.477       .  S
O1412      H1448   0.990       .  S
O1413      C1415   1.288       .  A
O1414      C1415   1.295       .  A
C1415      C4237   1.501       .  S
O1416     Zr1417   2.438       .  S
O1416      H1445   0.990       .  S
Zr1417     O1420   2.434       .  S
Zr1417     O1421   2.439       .  S
Zr1417     O1422   2.395       .  S
O1418      C1423   1.294       .  A
O1419      H1436   0.990       .  S
O1419      H1451   0.990       .  S
O1420      H1437   0.990       .  S
O1421      H1441   0.990       .  S
O1421      H1450   0.990       .  S
O1422      C1423   1.275       .  A
C1423      C4321   1.486       .  S
O1424      H1443   0.988       .  S
O1424      H1447   0.990       .  S
O1425      H1439   0.990       .  S
O1425      H1446   0.990       .  S
O1426      C1430   1.287       .  A
O1427      C1430   1.291       .  A
O1428      H1438   0.990       .  S
O1429      H1442   0.990       .  S
C1430      C4405   1.506       .  S
Zr1453     O1454   2.442       .  S
Zr1453     O1455   2.482       .  S
Zr1453     O1456   2.421       .  S
Zr1453     O1459   2.449       .  S
Zr1453     O1461   2.375       .  S
Zr1453     O1462   2.377       .  S
Zr1453     O1463   2.425       .  S
Zr1453     O1464   2.415       .  S
O1454      H1510   0.990       .  S
O1454      H1518   0.990       .  S
O1455      C1475   1.290       .  A
O1456      C1477   1.283       .  A
O1457     Zr1467   2.456       .  S
O1457      C1476   1.287       .  A
O1458     Zr1466   2.467       .  S
O1458      C1477   1.289       .  A
O1459      C1476   1.289       .  A
O1460     Zr1468   2.439       .  S
O1460      C1475   1.286       .  A
O1461     Zr1466   2.408       .  S
O1461     Zr1468   2.378       .  S
O1462     Zr1467   2.406       .  S
O1462     Zr1468   2.369       .  S
O1462      H1497   0.966       .  S
O1463     Zr1466   2.412       .  S
O1463     Zr1483   2.389       .  S
O1463      H1500   0.963       .  S
O1464     Zr1467   2.396       .  S
O1464     Zr1483   2.411       .  S
Zr1465     O1490   2.443       .  S
Zr1465     O1484   2.503       .  S
Zr1465     O1492   2.467       .  S
Zr1465     O1480   2.462       .  S
Zr1465     O1471   2.421       .  S
Zr1465     O1472   2.420       .  S
Zr1465     O1473   2.378       .  S
Zr1465     O1474   2.390       .  S
Zr1466     O1485   2.435       .  S
Zr1466     O1478   2.433       .  S
Zr1466     O1479   2.465       .  S
Zr1466     O1472   2.405       .  S
Zr1466     O1473   2.408       .  S
Zr1467     O1469   2.436       .  S
Zr1467     O1491   2.437       .  S
Zr1467     O1493   2.444       .  S
Zr1467     O1471   2.400       .  S
Zr1467     O1474   2.417       .  S
Zr1468     O1494   2.437       .  S
Zr1468     O1495   2.436       .  S
Zr1468     O1470   2.437       .  S
Zr1468     O1471   2.406       .  S
Zr1468     O1472   2.391       .  S
O1469      H1506   0.990       .  S
O1470      H1501   0.990       .  S
O1470      H1515   0.990       .  S
O1472      H1498   0.963       .  S
O1473     Zr1483   2.388       .  S
O1474     Zr1483   2.386       .  S
O1474      H1499   0.966       .  S
C1475      C4055   1.518       .  S
C1476      C3940   1.496       .  S
C1477      C4153   1.480       .  S
O1478      H1514   0.990       .  S
O1479      C1481   1.290       .  A
O1480      C1481   1.291       .  A
C1481      C4825   1.499       .  S
O1482     Zr1483   2.435       .  S
O1482      H1511   0.990       .  S
Zr1483     O1486   2.436       .  S
Zr1483     O1487   2.439       .  S
Zr1483     O1488   2.432       .  S
O1484      C1489   1.300       .  A
O1485      H1502   0.990       .  S
O1485      H1517   0.990       .  S
O1486      H1503   0.990       .  S
O1487      H1507   0.990       .  S
O1487      H1516   0.990       .  S
O1488      C1489   1.279       .  A
C1489      C4895   1.522       .  S
O1490      H1509   0.990       .  S
O1490      H1513   0.991       .  S
O1491      H1505   0.990       .  S
O1491      H1512   0.990       .  S
O1492      C1496   1.288       .  A
O1493      C1496   1.286       .  A
O1494      H1504   0.990       .  S
O1495      H1508   0.990       .  S
C1496      C4755   1.488       .  S
Zr1519     O1520   2.436       .  S
Zr1519     O1521   2.463       .  S
Zr1519     O1522   2.474       .  S
Zr1519     O1525   2.470       .  S
Zr1519     O1527   2.386       .  S
Zr1519     O1528   2.381       .  S
Zr1519     O1529   2.430       .  S
Zr1519     O1530   2.423       .  S
O1520      H1576   0.990       .  S
O1520      H1584   0.990       .  S
O1521      C1541   1.287       .  A
O1522      C1543   1.293       .  A
O1523     Zr1533   2.398       .  S
O1523      C1542   1.281       .  A
O1524     Zr1532   2.386       .  S
O1524      C1543   1.277       .  A
O1525      C1542   1.292       .  A
O1526     Zr1534   2.412       .  S
O1526      C1541   1.281       .  A
O1527     Zr1532   2.405       .  S
O1527     Zr1534   2.369       .  S
O1528     Zr1533   2.384       .  S
O1528     Zr1534   2.363       .  S
O1528      H1563   0.966       .  S
O1529     Zr1532   2.403       .  S
O1529     Zr1549   2.419       .  S
O1529      H1566   0.966       .  S
O1530     Zr1533   2.397       .  S
O1530     Zr1549   2.410       .  S
Zr1531     O1556   2.437       .  S
Zr1531     O1550   2.380       .  S
Zr1531     O1558   2.391       .  S
Zr1531     O1546   2.408       .  S
Zr1531     O1537   2.386       .  S
Zr1531     O1538   2.382       .  S
Zr1531     O1539   2.373       .  S
Zr1531     O1540   2.375       .  S
Zr1532     O1551   2.433       .  S
Zr1532     O1544   2.436       .  S
Zr1532     O1545   2.450       .  S
Zr1532     O1538   2.383       .  S
Zr1532     O1539   2.371       .  S
Zr1533     O1535   2.439       .  S
Zr1533     O1557   2.437       .  S
Zr1533     O1559   2.440       .  S
Zr1533     O1537   2.384       .  S
Zr1533     O1540   2.358       .  S
Zr1534     O1560   2.436       .  S
Zr1534     O1561   2.437       .  S
Zr1534     O1536   2.436       .  S
Zr1534     O1537   2.394       .  S
Zr1534     O1538   2.378       .  S
O1535      H1572   0.990       .  S
O1536      H1567   0.990       .  S
O1536      H1581   0.990       .  S
O1538      H1564   0.965       .  S
O1539     Zr1549   2.381       .  S
O1540     Zr1549   2.362       .  S
O1540      H1565   0.965       .  S
C1541      C3856   1.480       .  S
C1542      C3887   1.487       .  S
C1543      C3915   1.481       .  S
O1544      H1580   0.990       .  S
O1545      C1547   1.289       .  A
O1546      C1547   1.279       .  A
C1547      C3842   1.487       .  S
O1548     Zr1549   2.435       .  S
O1548      H1577   0.990       .  S
Zr1549     O1552   2.435       .  S
Zr1549     O1553   2.436       .  S
Zr1549     O1554   2.477       .  S
O1550      C1555   1.277       .  A
O1551      H1568   0.990       .  S
O1551      H1583   0.990       .  S
O1552      H1569   0.990       .  S
O1553      H1573   0.990       .  S
O1553      H1582   0.989       .  S
O1554      C1555   1.291       .  A
C1555      C3901   1.469       .  S
O1556      H1575   0.990       .  S
O1556      H1579   0.990       .  S
O1557      H1571   0.990       .  S
O1557      H1578   0.990       .  S
O1558      C1562   1.276       .  A
O1559      C1562   1.288       .  A
O1560      H1570   0.990       .  S
O1561      H1574   0.989       .  S
C1562      C3870   1.478       .  S
Zr1585     O1586   2.435       .  S
Zr1585     O1587   2.444       .  S
Zr1585     O1588   2.446       .  S
Zr1585     O1591   2.469       .  S
Zr1585     O1593   2.380       .  S
Zr1585     O1594   2.382       .  S
Zr1585     O1595   2.427       .  S
Zr1585     O1596   2.423       .  S
O1586      H1642   0.990       .  S
O1586      H1650   0.990       .  S
O1587      C1607   1.287       .  A
O1588      C1609   1.289       .  A
O1589     Zr1599   2.415       .  S
O1589      C1608   1.282       .  A
O1590     Zr1598   2.395       .  S
O1590      C1609   1.277       .  A
O1591      C1608   1.291       .  A
O1592     Zr1600   2.417       .  S
O1592      C1607   1.281       .  A
O1593     Zr1598   2.398       .  S
O1593     Zr1600   2.371       .  S
O1594     Zr1599   2.397       .  S
O1594     Zr1600   2.360       .  S
O1594      H1629   0.965       .  S
O1595     Zr1598   2.403       .  S
O1595     Zr1615   2.414       .  S
O1595      H1632   0.966       .  S
O1596     Zr1599   2.402       .  S
O1596     Zr1615   2.426       .  S
Zr1597     O1622   2.429       .  S
Zr1597     O1616   2.341       .  S
Zr1597     O1624   2.362       .  S
Zr1597     O1612   2.395       .  S
Zr1597     O1603   2.375       .  S
Zr1597     O1604   2.373       .  S
Zr1597     O1605   2.364       .  S
Zr1597     O1606   2.371       .  S
Zr1598     O1617   2.433       .  S
Zr1598     O1610   2.433       .  S
Zr1598     O1611   2.452       .  S
Zr1598     O1604   2.394       .  S
Zr1598     O1605   2.359       .  S
Zr1599     O1601   2.436   1_554  S
Zr1599     O1623   2.438       .  S
Zr1599     O1625   2.467       .  S
Zr1599     O1603   2.379       .  S
Zr1599     O1606   2.365       .  S
Zr1600     O1626   2.439       .  S
Zr1600     O1627   2.437       .  S
Zr1600     O1602   2.432       .  S
Zr1600     O1603   2.390       .  S
Zr1600     O1604   2.379       .  S
O1601      H1638   0.990       .  S
O1602      H1633   0.989       .  S
O1602      H1647   0.990       .  S
O1604      H1630   0.965       .  S
O1605     Zr1615   2.363       .  S
O1606     Zr1615   2.367       .  S
O1606      H1631   0.966       .  S
C1607      C3859   1.482       .  S
C1608      C3828   1.475       .  S
C1609      C3814   1.473       .  S
O1610      H1646   0.990       .  S
O1611      C1613   1.286       .  A
O1612      C1613   1.273       .  A
C1613      C3786   1.480       .  S
O1614     Zr1615   2.440       .  S
O1614      H1643   0.990       .  S
Zr1615     O1618   2.436       .  S
Zr1615     O1619   2.440   1_554  S
Zr1615     O1620   2.492       .  S
O1616      C1621   1.270       .  A
O1617      H1634   0.990       .  S
O1617      H1649   0.990       .  S
O1618      H1635   0.990       .  S
O1619      H1639   0.990       .  S
O1619      H1648   0.990       .  S
O1620      C1621   1.294       .  A
C1621      C3800   1.462       .  S
O1622      H1641   0.990       .  S
O1622      H1645   0.989       .  S
O1623      H1637   0.990       .  S
O1623      H1644   0.990       .  S
O1624      C1628   1.270       .  A
O1625      C1628   1.294       .  A
O1626      H1636   0.990       .  S
O1627      H1640   0.990       .  S
C1628      C3772   1.478       .  S
Zr1651     O1652   2.431       .  S
Zr1651     O1653   2.437       .  S
Zr1651     O1654   2.520       .  S
Zr1651     O1657   2.521       .  S
Zr1651     O1659   2.377       .  S
Zr1651     O1660   2.387       .  S
Zr1651     O1661   2.439       .  S
Zr1651     O1662   2.438       .  S
O1652      H1708   0.990       .  S
O1652      H1716   0.990       .  S
O1653      C1673   1.283       .  A
O1654      C1675   1.301       .  A
O1655     Zr1665   2.403       .  S
O1655      C1674   1.275       .  A
O1656     Zr1664   2.391       .  S
O1656      C1675   1.277       .  A
O1657      C1674   1.304       .  A
O1658     Zr1666   2.451       .  S
O1658      C1673   1.289       .  A
O1659     Zr1664   2.384       .  S
O1659     Zr1666   2.367       .  S
O1660     Zr1665   2.391       .  S
O1660     Zr1666   2.358       .  S
O1660      H1695   0.965       .  S
O1661     Zr1664   2.388       .  S
O1661     Zr1681   2.436       .  S
O1661      H1698   0.967       .  S
O1662     Zr1665   2.391       .  S
O1662     Zr1681   2.440       .  S
Zr1663     O1688   2.438       .  S
Zr1663     O1682   2.374       .  S
Zr1663     O1690   2.427       .  S
Zr1663     O1678   2.444       .  S
Zr1663     O1669   2.392       .  S
Zr1663     O1670   2.388       .  S
Zr1663     O1671   2.369       .  S
Zr1663     O1672   2.378       .  S
Zr1664     O1683   2.438   1_554  S
Zr1664     O1676   2.435       .  S
Zr1664     O1677   2.389       .  S
Zr1664     O1670   2.401       .  S
Zr1664     O1671   2.372       .  S
Zr1665     O1667   2.435       .  S
Zr1665     O1689   2.440       .  S
Zr1665     O1691   2.402       .  S
Zr1665     O1669   2.396       .  S
Zr1665     O1672   2.377       .  S
Zr1666     O1692   2.437       .  S
Zr1666     O1693   2.435       .  S
Zr1666     O1668   2.436       .  S
Zr1666     O1669   2.399       .  S
Zr1666     O1670   2.395       .  S
O1667      H1704   0.990       .  S
O1668      H1699   0.990       .  S
O1668      H1713   0.989       .  S
O1670      H1696   0.967       .  S
O1671     Zr1681   2.345       .  S
O1672     Zr1681   2.355       .  S
O1672      H1697   0.965       .  S
C1673      C3845   1.480       .  S
C1674      C3744   1.506       .  S
C1675      C3758   1.497       .  S
O1676      H1712   0.989       .  S
O1677      C1679   1.273       .  A
O1678      C1679   1.292       .  A
C1679      C3775   1.477       .  S
O1680     Zr1681   2.439       .  S
O1680      H1709   0.991   1_554  S
Zr1681     O1684   2.435   1_554  S
Zr1681     O1685   2.438       .  S
Zr1681     O1686   2.536       .  S
O1682      C1687   1.273       .  A
O1683      H1700   0.990       .  S
O1683      H1715   0.990       .  S
O1684      H1701   0.990       .  S
O1685      H1705   0.990       .  S
O1685      H1714   0.990       .  S
O1686      C1687   1.304       .  A
C1687      C3730   1.497       .  S
O1688      H1707   0.990       .  S
O1688      H1711   0.990       .  S
O1689      H1703   0.990       .  S
O1689      H1710   0.990       .  S
O1690      C1694   1.286       .  A
O1691      C1694   1.279       .  A
O1692      H1702   0.990       .  S
O1693      H1706   0.990       .  S
C1694      C3716   1.476       .  S
Zr1717     O1718   2.435       .  S
Zr1717     O1719   2.404       .  S
Zr1717     O1720   2.503       .  S
Zr1717     O1723   2.517       .  S
Zr1717     O1725   2.374       .  S
Zr1717     O1726   2.377       .  S
Zr1717     O1727   2.441       .  S
Zr1717     O1728   2.422       .  S
O1718      H1774   0.990       .  S
O1718      H1782   0.990       .  S
O1719      C1739   1.278       .  A
O1720      C1741   1.299       .  A
O1721     Zr1731   2.385       .  S
O1721      C1740   1.275       .  A
O1722     Zr1730   2.421       .  S
O1722      C1741   1.282       .  A
O1723      C1740   1.302       .  A
O1724     Zr1732   2.430       .  S
O1724      C1739   1.287       .  A
O1725     Zr1730   2.376       .  S
O1725     Zr1732   2.353       .  S
O1726     Zr1731   2.374       .  S
O1726     Zr1732   2.359       .  S
O1726      H1761   0.965       .  S
O1727     Zr1730   2.399       .  S
O1727     Zr1747   2.431       .  S
O1727      H1764   0.966       .  S
O1728     Zr1731   2.397       .  S
O1728     Zr1747   2.438       .  S
Zr1729     O1754   2.436       .  S
Zr1729     O1748   2.340       .  S
Zr1729     O1756   2.446       .  S
Zr1729     O1744   2.414       .  S
Zr1729     O1735   2.384       .  S
Zr1729     O1736   2.394       .  S
Zr1729     O1737   2.387       .  S
Zr1729     O1738   2.374       .  S
Zr1730     O1749   2.437       .  S
Zr1730     O1742   2.424       .  S
Zr1730     O1743   2.435       .  S
Zr1730     O1736   2.406       .  S
Zr1730     O1737   2.378       .  S
Zr1731     O1733   2.436       .  S
Zr1731     O1755   2.435       .  S
Zr1731     O1757   2.408       .  S
Zr1731     O1735   2.385       .  S
Zr1731     O1738   2.366       .  S
Zr1732     O1758   2.436       .  S
Zr1732     O1759   2.434       .  S
Zr1732     O1734   2.439       .  S
Zr1732     O1735   2.393       .  S
Zr1732     O1736   2.394       .  S
O1733      H1770   0.990       .  S
O1734      H1765   0.990       .  S
O1734      H1779   0.990       .  S
O1736      H1762   0.966       .  S
O1737     Zr1747   2.365       .  S
O1738     Zr1747   2.335       .  S
O1738      H1763   0.964       .  S
C1739      C3873   1.466       .  S
C1740      C3688   1.490       .  S
C1741      C3702   1.501       .  S
O1742      H1778   0.990       .  S
O1743      C1745   1.282       .  A
O1744      C1745   1.285       .  A
C1745      C3719   1.481       .  S
O1746     Zr1747   2.434       .  S
O1746      H1775   0.990       .  S
Zr1747     O1750   2.435       .  S
Zr1747     O1751   2.438       .  S
Zr1747     O1752   2.521       .  S
O1748      C1753   1.268       .  A
O1749      H1766   0.990       .  S
O1749      H1781   0.990       .  S
O1750      H1767   0.990       .  S
O1751      H1771   0.990       .  S
O1751      H1780   0.990       .  S
O1752      C1753   1.299       .  A
C1753      C3674   1.474       .  S
O1754      H1773   0.990       .  S
O1754      H1777   0.990       .  S
O1755      H1769   0.990       .  S
O1755      H1776   0.990       .  S
O1756      C1760   1.286       .  A
O1757      C1760   1.284       .  A
O1758      H1768   0.990       .  S
O1759      H1772   0.990       .  S
C1760      C3789   1.477       .  S
Zr1783     O1784   2.432       .  S
Zr1783     O1785   2.428       .  S
Zr1783     O1786   2.491       .  S
Zr1783     O1789   2.467       .  S
Zr1783     O1791   2.367       .  S
Zr1783     O1792   2.400       .  S
Zr1783     O1793   2.437       .  S
Zr1783     O1794   2.434       .  S
O1784      H1840   0.990       .  S
O1784      H1848   0.990       .  S
O1785      C1805   1.282       .  A
O1786      C1807   1.296       .  A
O1787     Zr1797   2.414       .  S
O1787      C1806   1.276       .  A
O1788     Zr1796   2.407       .  S
O1788      C1807   1.279       .  A
O1789      C1806   1.285       .  A
O1790     Zr1798   2.436       .  S
O1790      C1805   1.286       .  A
O1791     Zr1796   2.393       .  S
O1791     Zr1798   2.356       .  S
O1792     Zr1797   2.391       .  S
O1792     Zr1798   2.367       .  S
O1792      H1827   0.965       .  S
O1793     Zr1796   2.404       .  S
O1793     Zr1813   2.436       .  S
O1793      H1830   0.966       .  S
O1794     Zr1797   2.403       .  S
O1794     Zr1813   2.420       .  S
Zr1795     O1820   2.438       .  S
Zr1795     O1814   2.376       .  S
Zr1795     O1822   2.368       .  S
Zr1795     O1810   2.371       .  S
Zr1795     O1801   2.380       .  S
Zr1795     O1802   2.377       .  S
Zr1795     O1803   2.367       .  S
Zr1795     O1804   2.369       .  S
Zr1796     O1815   2.434       .  S
Zr1796     O1808   2.434       .  S
Zr1796     O1809   2.449       .  S
Zr1796     O1802   2.399       .  S
Zr1796     O1803   2.373       .  S
Zr1797     O1799   2.439       .  S
Zr1797     O1821   2.438       .  S
Zr1797     O1823   2.452       .  S
Zr1797     O1801   2.390       .  S
Zr1797     O1804   2.364       .  S
Zr1798     O1824   2.437       .  S
Zr1798     O1825   2.437       .  S
Zr1798     O1800   2.437       .  S
Zr1798     O1801   2.397       .  S
Zr1798     O1802   2.397       .  S
O1799      H1836   0.990       .  S
O1800      H1831   0.990       .  S
O1800      H1845   0.990       .  S
O1802      H1828   0.967       .  S
O1803     Zr1813   2.364       .  S
O1804     Zr1813   2.359       .  S
O1804      H1829   0.966       .  S
C1805      C3590   1.471       .  S
C1806      C3646   1.498       .  S
C1807      C3660   1.482       .  S
O1808      H1844   0.990       .  S
O1809      C1811   1.285       .  A
O1810      C1811   1.275       .  A
C1811      C3604   1.481       .  S
O1812     Zr1813   2.435       .  S
O1812      H1841   0.990       .  S
Zr1813     O1816   2.435       .  S
Zr1813     O1817   2.437       .  S
Zr1813     O1818   2.509       .  S
O1814      C1819   1.274       .  A
O1815      H1832   0.990       .  S
O1815      H1847   0.990       .  S
O1816      H1833   0.990       .  S
O1817      H1837   0.990       .  S
O1817      H1846   0.990       .  S
O1818      C1819   1.297       .  A
C1819      C3632   1.484       .  S
O1820      H1839   0.990       .  S
O1820      H1843   0.990       .  S
O1821      H1835   0.990       .  S
O1821      H1842   0.989       .  S
O1822      C1826   1.272       .  A
O1823      C1826   1.291       .  A
O1824      H1834   0.990       .  S
O1825      H1838   0.990       .  S
C1826      C3618   1.473       .  S
Zr1849     O1850   2.433       .  S
Zr1849     O1851   2.434       .  S
Zr1849     O1852   2.476       .  S
Zr1849     O1855   2.469       .  S
Zr1849     O1857   2.371       .  S
Zr1849     O1858   2.387       .  S
Zr1849     O1859   2.426       .  S
Zr1849     O1860   2.431       .  S
O1850      H1906   0.990       .  S
O1850      H1914   0.990       .  S
O1851      C1871   1.283       .  A
O1852      C1873   1.293       .  A
O1853     Zr1863   2.432       .  S
O1853      C1872   1.287       .  A
O1854     Zr1862   2.377       .  S
O1854      C1873   1.274       .  A
O1855      C1872   1.291       .  A
O1856     Zr1864   2.447       .  S
O1856      C1871   1.289       .  A
O1857     Zr1862   2.379       .  S
O1857     Zr1864   2.359       .  S
O1858     Zr1863   2.393       .  S
O1858     Zr1864   2.357       .  S
O1858      H1893   0.964       .  S
O1859     Zr1862   2.393       .  S
O1859     Zr1879   2.429       .  S
O1859      H1896   0.966       .  S
O1860     Zr1863   2.401       .  S
O1860     Zr1879   2.434       .  S
Zr1861     O1886   2.437       .  S
Zr1861     O1880   2.371       .  S
Zr1861     O1888   2.399       .  S
Zr1861     O1876   2.429       .  S
Zr1861     O1867   2.385       .  S
Zr1861     O1868   2.387       .  S
Zr1861     O1869   2.355       .  S
Zr1861     O1870   2.374       .  S
Zr1862     O1881   2.437       .  S
Zr1862     O1874   2.436       .  S
Zr1862     O1875   2.409       .  S
Zr1862     O1868   2.395       .  S
Zr1862     O1869   2.356       .  S
Zr1863     O1865   2.435       .  S
Zr1863     O1887   2.433       .  S
Zr1863     O1889   2.456       .  S
Zr1863     O1867   2.397       .  S
Zr1863     O1870   2.380       .  S
Zr1864     O1890   2.441       .  S
Zr1864     O1891   2.435       .  S
Zr1864     O1866   2.436       .  S
Zr1864     O1867   2.397       .  S
Zr1864     O1868   2.403       .  S
O1865      H1902   0.990       .  S
O1866      H1897   0.990       .  S
O1866      H1911   0.990       .  S
O1868      H1894   0.966       .  S
O1869     Zr1879   2.340       .  S
O1870     Zr1879   2.362       .  S
O1870      H1895   0.966       .  S
C1871      C3534   1.487       .  S
C1872      C3576   1.501       .  S
C1873      C3562   1.469       .  S
O1874      H1910   0.990       .  S
O1875      C1877   1.279       .  A
O1876      C1877   1.288       .  A
C1877      C3621   1.475       .  S
O1878     Zr1879   2.438       .  S
O1878      H1907   0.990       .  S
Zr1879     O1882   2.436       .  S
Zr1879     O1883   2.444       .  S
Zr1879     O1884   2.516       .  S
O1880      C1885   1.273       .  A
O1881      H1898   0.990       .  S
O1881      H1913   0.990       .  S
O1882      H1899   0.990       .  S
O1883      H1903   0.989       .  S
O1883      H1912   0.990       .  S
O1884      C1885   1.299       .  A
C1885      C3548   1.484       .  S
O1886      H1905   0.990       .  S
O1886      H1909   0.990       .  S
O1887      H1901   0.990       .  S
O1887      H1908   0.990       .  S
O1888      C1892   1.284       .  A
O1889      C1892   1.287       .  A
O1890      H1900   0.990       .  S
O1891      H1904   0.990       .  S
C1892      C3523   1.488       .  S
Zr1915     O1916   2.432       .  S
Zr1915     O1917   2.444       .  S
Zr1915     O1918   2.502       .  S
Zr1915     O1921   2.482       .  S
Zr1915     O1923   2.372       .  S
Zr1915     O1924   2.382       .  S
Zr1915     O1925   2.437       .  S
Zr1915     O1926   2.436       .  S
O1916      H1972   0.990       .  S
O1916      H1980   0.990       .  S
O1917      C1937   1.285       .  A
O1918      C1939   1.297       .  A
O1919     Zr1929   2.395       .  S
O1919      C1938   1.276       .  A
O1920     Zr1928   2.420       .  S
O1920      C1939   1.284       .  A
O1921      C1938   1.296       .  A
O1922     Zr1930   2.426       .  S
O1922      C1937   1.287       .  A
O1923     Zr1928   2.376       .  S
O1923     Zr1930   2.358       .  S
O1924     Zr1929   2.360       .  S
O1924     Zr1930   2.371       .  S
O1924      H1959   0.964       .  S
O1925     Zr1928   2.389       .  S
O1925     Zr1945   2.441       .  S
O1925      H1962   0.966       .  S
O1926     Zr1929   2.386       .  S
O1926     Zr1945   2.431       .  S
Zr1927     O1952   2.436       .  S
Zr1927     O1946   2.354       .  S
Zr1927     O1954   2.440       .  S
Zr1927     O1942   2.435       .  S
Zr1927     O1933   2.383       .  S
Zr1927     O1934   2.391       .  S
Zr1927     O1935   2.374       .  S
Zr1927     O1936   2.379       .  S
Zr1928     O1947   2.441       .  S
Zr1928     O1940   2.437       .  S
Zr1928     O1941   2.413       .  S
Zr1928     O1934   2.398       .  S
Zr1928     O1935   2.376       .  S
Zr1929     O1931   2.435       .  S
Zr1929     O1953   2.438       .  S
Zr1929     O1955   2.387       .  S
Zr1929     O1933   2.399       .  S
Zr1929     O1936   2.362       .  S
Zr1930     O1956   2.436       .  S
Zr1930     O1957   2.436       .  S
Zr1930     O1932   2.440       .  S
Zr1930     O1933   2.392       .  S
Zr1930     O1934   2.392       .  S
O1931      H1968   0.990       .  S
O1932      H1963   0.990       .  S
O1932      H1977   0.990       .  S
O1934      H1960   0.966       .  S
O1935     Zr1945   2.351       .  S
O1936     Zr1945   2.351       .  S
O1936      H1961   0.965       .  S
C1937      C3467   1.478       .  S
C1938      C3506   1.487       .  S
C1939      C3492   1.499       .  S
O1940      H1976   0.990       .  S
O1941      C1943   1.284       .  A
O1942      C1943   1.285       .  A
C1943      C3520   1.483       .  S
O1944     Zr1945   2.436       .  S
O1944      H1973   0.990       .  S
Zr1945     O1948   2.437       .  S
Zr1945     O1949   2.437       .  S
Zr1945     O1950   2.531       .  S
O1946      C1951   1.270       .  A
O1947      H1964   0.990       .  S
O1947      H1979   0.990       .  S
O1948      H1965   0.990       .  S
O1949      H1969   0.990       .  S
O1949      H1978   0.990       .  S
O1950      C1951   1.302       .  A
C1951      C3478   1.483       .  S
O1952      H1971   0.991       .  S
O1952      H1975   0.990       .  S
O1953      H1967   0.990       .  S
O1953      H1974   0.990       .  S
O1954      C1958   1.288       .  A
O1955      C1958   1.276       .  A
O1956      H1966   0.990       .  S
O1957      H1970   0.990       .  S
C1958      C3607   1.478       .  S
Zr1981     O1982   2.435       .  S
Zr1981     O1983   2.470       .  S
Zr1981     O1984   2.441       .  S
Zr1981     O1987   2.456       .  S
Zr1981     O1989   2.376       .  S
Zr1981     O1990   2.395       .  S
Zr1981     O1991   2.420       .  S
Zr1981     O1992   2.421       .  S
O1982      H2038   0.990       .  S
O1982      H2046   0.990       .  S
O1983      C2003   1.290       .  A
O1984      C2005   1.289       .  A
O1985     Zr1995   2.434       .  S
O1985      C2004   1.278       .  A
O1986     Zr1994   2.424       .  S
O1986      C2005   1.282       .  A
O1987      C2004   1.289       .  A
O1988     Zr1996   2.386       .  S
O1988      C2003   1.276       .  A
O1989     Zr1994   2.380       .  S
O1989     Zr1996   2.372       .  S
O1990     Zr1995   2.396       .  S
O1990     Zr1996   2.366       .  S
O1990      H2025   0.964       .  S
O1991     Zr1994   2.390       .  S
O1991     Zr2011   2.412       .  S
O1991      H2028   0.966       .  S
O1992     Zr1995   2.396       .  S
O1992     Zr2011   2.421       .  S
Zr1993     O2018   2.442       .  S
Zr1993     O2012   2.395       .  S
Zr1993     O2020   2.433       .  S
Zr1993     O2008   2.454       .  S
Zr1993     O1999   2.382       .  S
Zr1993     O2000   2.402       .  S
Zr1993     O2001   2.385       .  S
Zr1993     O2002   2.395       .  S
Zr1994     O2013   2.435       .  S
Zr1994     O2006   2.437       .  S
Zr1994     O2007   2.418       .  S
Zr1994     O2000   2.398       .  S
Zr1994     O2001   2.383       .  S
Zr1995     O1997   2.435       .  S
Zr1995     O2019   2.440       .  S
Zr1995     O2021   2.428       .  S
Zr1995     O1999   2.388       .  S
Zr1995     O2002   2.395       .  S
Zr1996     O2022   2.432       .  S
Zr1996     O2023   2.437       .  S
Zr1996     O1998   2.438       .  S
Zr1996     O1999   2.364       .  S
Zr1996     O2000   2.364       .  S
O1997      H2034   0.990       .  S
O1998      H2029   0.990       .  S
O1998      H2043   0.990       .  S
O2000      H2026   0.964       .  S
O2001     Zr2011   2.373       .  S
O2002     Zr2011   2.385       .  S
O2002      H2027   0.966       .  S
C2003      C3537   1.471       .  S
C2004      C3422   1.483       .  S
C2005      C3436   1.483       .  S
O2006      H2042   0.990       .  S
O2007      C2009   1.284       .  A
O2008      C2009   1.288       .  A
C2009      C3464   1.485       .  S
O2010     Zr2011   2.434       .  S
O2010      H2039   0.990       .  S
Zr2011     O2014   2.437       .  S
Zr2011     O2015   2.438       .  S
Zr2011     O2016   2.467       .  S
O2012      C2017   1.270       .  A
O2013      H2030   0.990       .  S
O2013      H2045   0.990       .  S
O2014      H2031   0.990       .  S
O2015      H2035   0.990       .  S
O2015      H2044   0.989       .  S
O2016      C2017   1.285       .  A
C2017      C3450   1.474       .  S
O2018      H2037   0.990       .  S
O2018      H2041   0.990       .  S
O2019      H2033   0.990       .  S
O2019      H2040   0.989       .  S
O2020      C2024   1.285       .  A
O2021      C2024   1.282       .  A
O2022      H2032   0.990       .  S
O2023      H2036   0.990       .  S
C2024      C3593   1.463       .  S
Zr2047     O2048   2.440       .  S
Zr2047     O2049   2.472       .  S
Zr2047     O2050   2.427       .  S
Zr2047     O2053   2.449       .  S
Zr2047     O2055   2.374       .  S
Zr2047     O2056   2.389       .  S
Zr2047     O2057   2.419       .  S
Zr2047     O2058   2.396       .  S
O2048      H2104   0.990       .  S
O2048      H2112   0.990       .  S
O2049      C2069   1.293       .  A
O2050      C2071   1.284       .  A
O2051     Zr2061   2.430       .  S
O2051      C2070   1.286       .  A
O2052     Zr2060   2.462       .  S
O2052      C2071   1.288       .  A
O2053      C2070   1.285       .  A
O2054     Zr2062   2.428       .  S
O2054      C2069   1.279       .  A
O2055     Zr2060   2.404       .  S
O2055     Zr2062   2.389       .  S
O2056     Zr2061   2.404       .  S
O2056     Zr2062   2.384       .  S
O2056      H2091   0.966       .  S
O2057     Zr2060   2.400       .  S
O2057     Zr2077   2.381       .  S
O2057      H2094   0.964       .  S
O2058     Zr2061   2.382       .  S
O2058     Zr2077   2.382       .  S
Zr2059     O2084   2.439       .  S
Zr2059     O2078   2.462       .  S
Zr2059     O2086   2.433       .  S
Zr2059     O2074   2.449       .  S
Zr2059     O2065   2.416       .  S
Zr2059     O2066   2.410       .  S
Zr2059     O2067   2.378       .  S
Zr2059     O2068   2.375       .  S
Zr2060     O2079   2.435       .  S
Zr2060     O2072   2.433       .  S
Zr2060     O2073   2.450       .  S
Zr2060     O2066   2.403       .  S
Zr2060     O2067   2.405       .  S
Zr2061     O2063   2.437       .  S
Zr2061     O2085   2.437       .  S
Zr2061     O2087   2.446       .  S
Zr2061     O2065   2.393       .  S
Zr2061     O2068   2.389       .  S
Zr2062     O2088   2.438       .  S
Zr2062     O2089   2.434       .  S
Zr2062     O2064   2.436       .  S
Zr2062     O2065   2.412       .  S
Zr2062     O2066   2.388       .  S
O2063      H2100   0.990       .  S
O2064      H2095   0.990       .  S
O2064      H2109   0.990       .  S
O2066      H2092   0.964       .  S
O2067     Zr2077   2.383       .  S
O2068     Zr2077   2.371       .  S
O2068      H2093   0.966       .  S
C2069      C3691   1.510       .  S
C2070      C3817   1.482       .  S
C2071      C3884   1.480       .  S
O2072      H2108   0.990       .  S
O2073      C2075   1.287       .  A
O2074      C2075   1.290       .  A
C2075      C3649   1.484       .  S
O2076     Zr2077   2.436       .  S
O2076      H2105   0.991       .  S
Zr2077     O2080   2.437       .  S
Zr2077     O2081   2.441       .  S
Zr2077     O2082   2.402       .  S
O2078      C2083   1.293       .  A
O2079      H2096   0.990       .  S
O2079      H2111   0.990       .  S
O2080      H2097   0.990       .  S
O2081      H2101   0.990       .  S
O2081      H2110   0.990       .  S
O2082      C2083   1.275       .  A
C2083      C3565   1.493       .  S
O2084      H2103   0.990       .  S
O2084      H2107   0.990       .  S
O2085      H2099   0.990       .  S
O2085      H2106   0.990       .  S
O2086      C2090   1.283       .  A
O2087      C2090   1.286       .  A
O2088      H2098   0.990       .  S
O2089      H2102   0.990       .  S
C2090      C3425   1.481       .  S
Zr2113     O2114   2.443       .  S
Zr2113     O2115   2.505       .  S
Zr2113     O2116   2.482       .  S
Zr2113     O2119   2.456   1_554  S
Zr2113     O2121   2.377       .  S
Zr2113     O2122   2.396       .  S
Zr2113     O2123   2.423   1_554  S
Zr2113     O2124   2.418   1_554  S
O2114      H2170   0.990       .  S
O2114      H2178   0.990       .  S
O2115      C2135   1.297       .  A
O2116      C2137   1.293   1_554  A
O2117     Zr2127   2.455       .  S
O2117      C2136   1.287       .  A
O2118     Zr2126   2.395       .  S
O2118      C2137   1.277       .  A
O2119      C2136   1.288       .  A
O2120     Zr2128   2.411       .  S
O2120      C2135   1.276       .  A
O2121     Zr2126   2.399   1_554  S
O2121     Zr2128   2.386       .  S
O2122     Zr2127   2.408   1_554  S
O2122     Zr2128   2.382       .  S
O2122      H2157   0.965       .  S
O2123     Zr2126   2.391       .  S
O2123     Zr2143   2.393       .  S
O2123      H2160   0.963       .  S
O2124     Zr2127   2.392       .  S
O2124     Zr2143   2.396       .  S
Zr2125     O2150   2.437       .  S
Zr2125     O2144   2.459       .  S
Zr2125     O2152   2.453       .  S
Zr2125     O2140   2.463       .  S
Zr2125     O2131   2.417       .  S
Zr2125     O2132   2.409       .  S
Zr2125     O2133   2.373       .  S
Zr2125     O2134   2.390       .  S
Zr2126     O2145   2.436       .  S
Zr2126     O2138   2.435       .  S
Zr2126     O2139   2.408       .  S
Zr2126     O2132   2.394       .  S
Zr2126     O2133   2.391       .  S
Zr2127     O2129   2.441       .  S
Zr2127     O2151   2.438   1_556  S
Zr2127     O2153   2.453       .  S
Zr2127     O2131   2.396       .  S
Zr2127     O2134   2.404       .  S
Zr2128     O2154   2.438       .  S
Zr2128     O2155   2.436       .  S
Zr2128     O2130   2.437       .  S
Zr2128     O2131   2.393   1_554  S
Zr2128     O2132   2.387   1_554  S
O2129      H2166   0.989       .  S
O2130      H2161   0.990       .  S
O2130      H2175   0.990       .  S
O2132      H2158   0.965       .  S
O2133     Zr2143   2.380       .  S
O2134     Zr2143   2.375       .  S
O2134      H2159   0.966       .  S
C2135      C3677   1.497       .  S
C2136      C3733   1.487       .  S
C2137      C3803   1.472       .  S
O2138      H2174   0.990   1_556  S
O2139      C2141   1.279       .  A
O2140      C2141   1.290       .  A
C2141      C4951   1.473       .  S
O2142     Zr2143   2.436       .  S
O2142      H2171   0.991       .  S
Zr2143     O2146   2.437       .  S
Zr2143     O2147   2.439       .  S
Zr2143     O2148   2.427       .  S
O2144      C2149   1.287       .  A
O2145      H2162   0.990       .  S
O2145      H2177   0.990       .  S
O2146      H2163   0.990       .  S
O2147      H2167   0.990       .  S
O2147      H2176   0.990       .  S
O2148      C2149   1.282       .  A
C2149      C5175   1.484       .  S
O2150      H2169   0.990       .  S
O2150      H2173   0.990       .  S
O2151      H2165   0.990       .  S
O2151      H2172   0.990       .  S
O2152      C2156   1.287       .  A
O2153      C2156   1.289       .  A
O2154      H2164   0.990       .  S
O2155      H2168   0.990       .  S
C2156      C5077   1.491       .  S
Zr2179     O2180   2.436       .  S
Zr2179     O2181   2.433       .  S
Zr2179     O2182   2.468       .  S
Zr2179     O2185   2.490       .  S
Zr2179     O2187   2.385       .  S
Zr2179     O2188   2.385       .  S
Zr2179     O2189   2.434       .  S
Zr2179     O2190   2.425       .  S
O2180      H2236   0.990       .  S
O2180      H2244   0.990       .  S
O2181      C2201   1.287       .  A
O2182      C2203   1.290       .  A
O2183     Zr2193   2.432       .  S
O2183      C2202   1.288       .  A
O2184     Zr2192   2.436       .  S
O2184      C2203   1.276       .  A
O2185      C2202   1.294       .  A
O2186     Zr2194   2.428       .  S
O2186      C2201   1.283       .  A
O2187     Zr2192   2.402       .  S
O2187     Zr2194   2.365       .  S
O2188     Zr2193   2.385       .  S
O2188     Zr2194   2.362       .  S
O2188      H2223   0.965       .  S
O2189     Zr2192   2.416       .  S
O2189     Zr2209   2.419       .  S
O2189      H2226   0.966       .  S
O2190     Zr2193   2.398       .  S
O2190     Zr2209   2.422       .  S
Zr2191     O2216   2.432       .  S
Zr2191     O2210   2.378       .  S
Zr2191     O2218   2.385       .  S
Zr2191     O2206   2.408       .  S
Zr2191     O2197   2.394       .  S
Zr2191     O2198   2.391       .  S
Zr2191     O2199   2.371       .  S
Zr2191     O2200   2.381       .  S
Zr2192     O2211   2.435       .  S
Zr2192     O2204   2.434       .  S
Zr2192     O2205   2.469       .  S
Zr2192     O2198   2.413       .  S
Zr2192     O2199   2.374       .  S
Zr2193     O2195   2.436       .  S
Zr2193     O2217   2.438       .  S
Zr2193     O2219   2.456       .  S
Zr2193     O2197   2.383       .  S
Zr2193     O2200   2.373       .  S
Zr2194     O2220   2.437       .  S
Zr2194     O2221   2.441       .  S
Zr2194     O2196   2.433       .  S
Zr2194     O2197   2.392       .  S
Zr2194     O2198   2.382       .  S
O2195      H2232   0.990       .  S
O2196      H2227   0.990       .  S
O2196      H2241   0.990       .  S
O2198      H2224   0.964       .  S
O2199     Zr2209   2.369       .  S
O2200     Zr2209   2.359       .  S
O2200      H2225   0.965       .  S
C2201      C3341   1.481       .  S
C2202      C3394   1.500       .  S
C2203      C3411   1.481       .  S
O2204      H2240   0.990       .  S
O2205      C2207   1.285       .  A
O2206      C2207   1.272       .  A
C2207      C3369   1.495       .  S
O2208     Zr2209   2.437       .  S
O2208      H2237   0.990       .  S
Zr2209     O2212   2.434       .  S
Zr2209     O2213   2.440       .  S
Zr2209     O2214   2.487       .  S
O2210      C2215   1.276       .  A
O2211      H2228   0.990       .  S
O2211      H2243   0.990       .  S
O2212      H2229   0.990       .  S
O2213      H2233   0.990       .  S
O2213      H2242   0.990       .  S
O2214      C2215   1.294       .  A
C2215      C3383   1.474       .  S
O2216      H2235   0.989       .  S
O2216      H2239   0.989       .  S
O2217      H2231   0.990       .  S
O2217      H2238   0.990       .  S
O2218      C2222   1.276       .  A
O2219      C2222   1.293       .  A
O2220      H2230   0.990       .  S
O2221      H2234   0.990       .  S
C2222      C3352   1.469       .  S
Zr2245     O2246   2.437       .  S
Zr2245     O2247   2.460       .  S
Zr2245     O2248   2.470       .  S
Zr2245     O2251   2.482       .  S
Zr2245     O2253   2.390       .  S
Zr2245     O2254   2.384       .  S
Zr2245     O2255   2.437       .  S
Zr2245     O2256   2.419       .  S
O2246      H2302   0.990       .  S
O2246      H2310   0.990       .  S
O2247      C2267   1.288       .  A
O2248      C2269   1.291       .  A
O2249     Zr2259   2.402       .  S
O2249      C2268   1.279       .  A
O2250     Zr2258   2.421       .  S
O2250      C2269   1.273       .  A
O2251      C2268   1.297       .  A
O2252     Zr2260   2.425       .  S
O2252      C2267   1.277       .  A
O2253     Zr2258   2.405       .  S
O2253     Zr2260   2.364       .  S
O2254     Zr2259   2.379       .  S
O2254     Zr2260   2.371       .  S
O2254      H2289   0.965       .  S
O2255     Zr2258   2.414       .  S
O2255     Zr2275   2.420       .  S
O2255      H2292   0.966       .  S
O2256     Zr2259   2.392       .  S
O2256     Zr2275   2.420       .  S
Zr2257     O2282   2.434       .  S
Zr2257     O2276   2.392       .  S
Zr2257     O2284   2.406       .  S
Zr2257     O2272   2.417       .  S
Zr2257     O2263   2.400       .  S
Zr2257     O2264   2.397       .  S
Zr2257     O2265   2.373       .  S
Zr2257     O2266   2.379       .  S
Zr2258     O2277   2.432   1_545  S
Zr2258     O2270   2.436       .  S
Zr2258     O2271   2.454       .  S
Zr2258     O2264   2.415       .  S
Zr2258     O2265   2.378       .  S
Zr2259     O2261   2.437   1_455  S
Zr2259     O2283   2.438       .  S
Zr2259     O2285   2.424       .  S
Zr2259     O2263   2.385       .  S
Zr2259     O2266   2.363       .  S
Zr2260     O2286   2.438       .  S
Zr2260     O2287   2.435       .  S
Zr2260     O2262   2.435       .  S
Zr2260     O2263   2.396       .  S
Zr2260     O2264   2.379       .  S
O2261      H2298   0.989       .  S
O2262      H2293   0.990       .  S
O2262      H2307   0.990       .  S
O2264      H2290   0.965       .  S
O2265     Zr2275   2.366       .  S
O2266     Zr2275   2.361       .  S
O2266      H2291   0.966       .  S
C2267      C3338   1.480       .  S
C2268      C3327   1.488   1_455  S
C2269      C3299   1.484       .  S
O2270      H2306   0.990       .  S
O2271      C2273   1.287   1_545  A
O2272      C2273   1.273   1_545  A
C2273      C3282   1.480       .  S
O2274     Zr2275   2.436   1_655  S
O2274      H2303   0.990       .  S
Zr2275     O2278   2.435   1_545  S
Zr2275     O2279   2.436   1_455  S
Zr2275     O2280   2.493   1_455  S
O2276      C2281   1.275       .  A
O2277      H2294   0.990       .  S
O2277      H2309   0.990       .  S
O2278      H2295   0.990       .  S
O2279      H2299   0.990       .  S
O2279      H2308   0.990       .  S
O2280      C2281   1.295   1_655  A
C2281      C3313   1.478   1_445  S
O2282      H2301   0.990       .  S
O2282      H2305   0.989       .  S
O2283      H2297   0.990       .  S
O2283      H2304   0.990       .  S
O2284      C2288   1.279       .  A
O2285      C2288   1.287       .  A
O2286      H2296   0.990       .  S
O2287      H2300   0.990       .  S
C2288      C3268   1.473       .  S
Zr2311     O2312   2.433       .  S
Zr2311     O2313   2.433       .  S
Zr2311     O2314   2.513       .  S
Zr2311     O2317   2.507       .  S
Zr2311     O2319   2.382       .  S
Zr2311     O2320   2.401       .  S
Zr2311     O2321   2.430       .  S
Zr2311     O2322   2.434       .  S
O2312      H2368   0.990       .  S
O2312      H2376   0.990       .  S
O2313      C2333   1.285       .  A
O2314      C2335   1.301       .  A
O2315     Zr2325   2.407   1_556  S
O2315      C2334   1.272   1_556  A
O2316     Zr2324   2.395       .  S
O2316      C2335   1.277       .  A
O2317      C2334   1.297       .  A
O2318     Zr2326   2.443       .  S
O2318      C2333   1.285       .  A
O2319     Zr2324   2.382       .  S
O2319     Zr2326   2.370       .  S
O2320     Zr2325   2.397       .  S
O2320     Zr2326   2.353       .  S
O2320      H2355   0.966       .  S
O2321     Zr2324   2.385       .  S
O2321     Zr2341   2.421       .  S
O2321      H2358   0.967       .  S
O2322     Zr2325   2.398       .  S
O2322     Zr2341   2.428       .  S
Zr2323     O2348   2.438       .  S
Zr2323     O2342   2.412       .  S
Zr2323     O2350   2.427       .  S
Zr2323     O2338   2.418       .  S
Zr2323     O2329   2.388       .  S
Zr2323     O2330   2.411       .  S
Zr2323     O2331   2.374       .  S
Zr2323     O2332   2.374       .  S
Zr2324     O2343   2.434   1_455  S
Zr2324     O2336   2.435       .  S
Zr2324     O2337   2.398       .  S
Zr2324     O2330   2.397       .  S
Zr2324     O2331   2.367       .  S
Zr2325     O2327   2.434   1_554  S
Zr2325     O2349   2.436       .  S
Zr2325     O2351   2.423   1_554  S
Zr2325     O2329   2.392       .  S
Zr2325     O2332   2.388       .  S
Zr2326     O2352   2.437       .  S
Zr2326     O2353   2.437       .  S
Zr2326     O2328   2.439       .  S
Zr2326     O2329   2.405       .  S
Zr2326     O2330   2.397       .  S
O2327      H2364   0.989       .  S
O2328      H2359   0.990       .  S
O2328      H2373   0.990       .  S
O2330      H2356   0.966       .  S
O2331     Zr2341   2.348       .  S
O2332     Zr2341   2.376       .  S
O2332      H2357   0.965   1_554  S
C2333      C3366   1.479       .  S
C2334      C3229   1.510       .  S
C2335      C3254   1.492       .  S
O2336      H2372   0.989       .  S
O2337      C2339   1.278       .  A
O2338      C2339   1.284       .  A
C2339      C3271   1.467       .  S
O2340     Zr2341   2.435   1_655  S
O2340      H2369   0.990       .  S
Zr2341     O2344   2.435   1_455  S
Zr2341     O2345   2.436   1_554  S
Zr2341     O2346   2.507   1_455  S
O2342      C2347   1.279       .  A
O2343      H2360   0.990       .  S
O2343      H2375   0.990       .  S
O2344      H2361   0.990       .  S
O2345      H2365   0.990       .  S
O2345      H2374   0.990       .  S
O2346      C2347   1.298   1_655  A
C2347      C3243   1.495   1_455  S
O2348      H2367   0.990       .  S
O2348      H2371   0.990       .  S
O2349      H2363   0.989       .  S
O2349      H2370   0.989   1_554  S
O2350      C2354   1.288   1_554  A
O2351      C2354   1.280       .  A
O2352      H2362   0.989       .  S
O2353      H2366   0.990       .  S
C2354      C3212   1.480       .  S
Zr2377     O2378   2.433   1_545  S
Zr2377     O2379   2.433       .  S
Zr2377     O2380   2.459       .  S
Zr2377     O2383   2.472   1_545  S
Zr2377     O2385   2.378       .  S
Zr2377     O2386   2.391       .  S
Zr2377     O2387   2.429       .  S
Zr2377     O2388   2.426       .  S
O2378      H2434   0.990       .  S
O2378      H2442   0.990       .  S
O2379      C2399   1.284       .  A
O2380      C2401   1.290       .  A
O2381     Zr2391   2.420   1_565  S
O2381      C2400   1.275       .  A
O2382     Zr2390   2.396       .  S
O2382      C2401   1.280       .  A
O2383      C2400   1.291       .  A
O2384     Zr2392   2.426       .  S
O2384      C2399   1.283       .  A
O2385     Zr2390   2.370       .  S
O2385     Zr2392   2.368       .  S
O2386     Zr2391   2.390       .  S
O2386     Zr2392   2.362       .  S
O2386      H2421   0.963       .  S
O2387     Zr2390   2.383       .  S
O2387     Zr2407   2.422       .  S
O2387      H2424   0.966       .  S
O2388     Zr2391   2.396       .  S
O2388     Zr2407   2.450       .  S
Zr2389     O2414   2.440       .  S
Zr2389     O2408   2.391       .  S
Zr2389     O2416   2.423       .  S
Zr2389     O2404   2.442       .  S
Zr2389     O2395   2.388       .  S
Zr2389     O2396   2.401       .  S
Zr2389     O2397   2.375       .  S
Zr2389     O2398   2.384       .  S
Zr2390     O2409   2.437       .  S
Zr2390     O2402   2.435       .  S
Zr2390     O2403   2.393       .  S
Zr2390     O2396   2.403       .  S
Zr2390     O2397   2.365       .  S
Zr2391     O2393   2.434   1_554  S
Zr2391     O2415   2.437       .  S
Zr2391     O2417   2.421   1_554  S
Zr2391     O2395   2.404       .  S
Zr2391     O2398   2.381       .  S
Zr2392     O2418   2.436       .  S
Zr2392     O2419   2.436       .  S
Zr2392     O2394   2.438       .  S
Zr2392     O2395   2.399       .  S
Zr2392     O2396   2.383       .  S
O2393      H2430   0.990       .  S
O2394      H2425   0.990       .  S
O2394      H2439   0.990       .  S
O2396      H2422   0.967       .  S
O2397     Zr2407   2.339       .  S
O2398     Zr2407   2.378       .  S
O2398      H2423   0.966       .  S
C2399      C3285   1.467       .  S
C2400      C3198   1.492       .  S
C2401      C3184   1.493       .  S
O2402      H2438   0.990       .  S
O2403      C2405   1.278       .  A
O2404      C2405   1.292       .  A
C2405      C3355   1.473       .  S
O2406     Zr2407   2.433       .  S
O2406      H2435   0.990       .  S
Zr2407     O2410   2.435       .  S
Zr2407     O2411   2.436   1_554  S
Zr2407     O2412   2.543       .  S
O2408      C2413   1.266       .  A
O2409      H2426   0.990       .  S
O2409      H2441   0.990       .  S
O2410      H2427   0.990       .  S
O2411      H2431   0.990       .  S
O2411      H2440   0.990       .  S
O2412      C2413   1.295       .  A
C2413      C3170   1.519       .  S
O2414      H2433   0.990       .  S
O2414      H2437   0.990       .  S
O2415      H2429   0.990       .  S
O2415      H2436   0.989       .  S
O2416      C2420   1.288   1_554  A
O2417      C2420   1.280       .  A
O2418      H2428   0.990       .  S
O2419      H2432   0.990       .  S
C2420      C3215   1.474       .  S
Zr2443     O2444   2.443       .  S
Zr2443     O2445   2.487       .  S
Zr2443     O2446   2.441       .  S
Zr2443     O2449   2.439       .  S
Zr2443     O2451   2.384       .  S
Zr2443     O2452   2.378       .  S
Zr2443     O2453   2.428       .  S
Zr2443     O2454   2.408       .  S
O2444      H2500   0.990       .  S
O2444      H2508   0.988       .  S
O2445      C2465   1.291       .  A
O2446      C2467   1.284       .  A
O2447     Zr2457   2.446       .  S
O2447      C2466   1.285   1_554  A
O2448     Zr2456   2.494       .  S
O2448      C2467   1.297       .  A
O2449      C2466   1.287       .  A
O2450     Zr2458   2.408   1_556  S
O2450      C2465   1.278       .  A
O2451     Zr2456   2.417       .  S
O2451     Zr2458   2.393   1_556  S
O2452     Zr2457   2.400   1_556  S
O2452     Zr2458   2.377   1_556  S
O2452      H2487   0.966   1_556  S
O2453     Zr2456   2.404       .  S
O2453     Zr2473   2.386       .  S
O2453      H2490   0.962       .  S
O2454     Zr2457   2.384   1_556  S
O2454     Zr2473   2.392       .  S
Zr2455     O2480   2.442       .  S
Zr2455     O2474   2.490       .  S
Zr2455     O2482   2.457       .  S
Zr2455     O2470   2.461       .  S
Zr2455     O2461   2.411       .  S
Zr2455     O2462   2.424   1_554  S
Zr2455     O2463   2.384   1_554  S
Zr2455     O2464   2.385       .  S
Zr2456     O2475   2.438       .  S
Zr2456     O2468   2.435       .  S
Zr2456     O2469   2.483       .  S
Zr2456     O2462   2.405       .  S
Zr2456     O2463   2.414       .  S
Zr2457     O2459   2.435       .  S
Zr2457     O2481   2.437       .  S
Zr2457     O2483   2.432       .  S
Zr2457     O2461   2.393       .  S
Zr2457     O2464   2.404       .  S
Zr2458     O2484   2.436       .  S
Zr2458     O2485   2.437       .  S
Zr2458     O2460   2.438   1_554  S
Zr2458     O2461   2.395       .  S
Zr2458     O2462   2.373   1_554  S
O2459      H2496   0.990       .  S
O2460      H2491   0.990       .  S
O2460      H2505   0.990       .  S
O2462      H2488   0.960       .  S
O2463     Zr2473   2.389       .  S
O2464     Zr2473   2.375   1_554  S
O2464      H2489   0.966       .  S
C2465      C4909   1.502       .  S
C2466      C4699   1.485       .  S
C2467      C4769   1.495       .  S
O2468      H2504   0.990       .  S
O2469      C2471   1.295       .  A
O2470      C2471   1.289   1_554  A
C2471      C3226   1.495       .  S
O2472     Zr2473   2.436       .  S
O2472      H2501   0.990       .  S
Zr2473     O2476   2.436       .  S
Zr2473     O2477   2.437       .  S
Zr2473     O2478   2.419       .  S
O2474      C2479   1.293       .  A
O2475      H2492   0.990       .  S
O2475      H2507   0.990       .  S
O2476      H2493   0.990       .  S
O2477      H2497   0.990       .  S
O2477      H2506   0.989   1_556  S
O2478      C2479   1.280   1_556  A
C2479      C3173   1.505       .  S
O2480      H2499   0.990       .  S
O2480      H2503   0.990       .  S
O2481      H2495   0.990       .  S
O2481      H2502   0.990       .  S
O2482      C2486   1.290       .  A
O2483      C2486   1.283       .  A
O2484      H2494   0.989       .  S
O2485      H2498   0.990       .  S
C2486      C3380   1.478       .  S
Zr2509     O2510   2.439       .  S
Zr2509     O2511   2.439       .  S
Zr2509     O2512   2.441       .  S
Zr2509     O2515   2.460       .  S
Zr2509     O2517   2.385       .  S
Zr2509     O2518   2.383       .  S
Zr2509     O2519   2.413   1_545  S
Zr2509     O2520   2.395   1_545  S
O2510      H2566   0.991       .  S
O2510      H2574   0.990   1_545  S
O2511      C2531   1.284       .  A
O2512      C2533   1.286       .  A
O2513     Zr2523   2.446       .  S
O2513      C2532   1.286   1_565  A
O2514     Zr2522   2.434   1_545  S
O2514      C2533   1.285       .  A
O2515      C2532   1.290       .  A
O2516     Zr2524   2.458       .  S
O2516      C2531   1.289       .  A
O2517     Zr2522   2.410   1_545  S
O2517     Zr2524   2.367       .  S
O2518     Zr2523   2.404   1_545  S
O2518     Zr2524   2.373       .  S
O2518      H2553   0.966       .  S
O2519     Zr2522   2.416       .  S
O2519     Zr2539   2.398       .  S
O2519      H2556   0.966       .  S
O2520     Zr2523   2.393       .  S
O2520     Zr2539   2.383       .  S
Zr2521     O2546   2.442       .  S
Zr2521     O2540   2.475       .  S
Zr2521     O2548   2.452       .  S
Zr2521     O2536   2.439       .  S
Zr2521     O2527   2.406       .  S
Zr2521     O2528   2.423       .  S
Zr2521     O2529   2.374       .  S
Zr2521     O2530   2.386       .  S
Zr2522     O2541   2.436       .  S
Zr2522     O2534   2.433   1_565  S
Zr2522     O2535   2.484       .  S
Zr2522     O2528   2.393       .  S
Zr2522     O2529   2.391       .  S
Zr2523     O2525   2.436       .  S
Zr2523     O2547   2.438   1_565  S
Zr2523     O2549   2.447       .  S
Zr2523     O2527   2.388       .  S
Zr2523     O2530   2.408       .  S
Zr2524     O2550   2.435       .  S
Zr2524     O2551   2.436       .  S
Zr2524     O2526   2.437       .  S
Zr2524     O2527   2.397   1_545  S
Zr2524     O2528   2.408   1_545  S
O2525      H2562   0.990       .  S
O2526      H2557   0.990       .  S
O2526      H2571   0.990       .  S
O2528      H2554   0.965   1_565  S
O2529     Zr2539   2.390       .  S
O2530     Zr2539   2.396       .  S
O2530      H2555   0.966       .  S
C2531      C3397   1.505       .  S
C2532      C3187   1.487       .  S
C2533      C3296   1.478       .  S
O2534      H2570   0.990       .  S
O2535      C2537   1.292       .  A
O2536      C2537   1.285       .  A
C2537      C4251   1.498       .  S
O2538     Zr2539   2.440       .  S
O2538      H2567   0.990       .  S
Zr2539     O2542   2.437       .  S
Zr2539     O2543   2.440       .  S
Zr2539     O2544   2.406       .  S
O2540      C2545   1.290       .  A
O2541      H2558   0.990       .  S
O2541      H2573   0.990       .  S
O2542      H2559   0.990       .  S
O2543      H2563   0.990       .  S
O2543      H2572   0.990       .  S
O2544      C2545   1.278       .  A
C2545      C4419   1.486       .  S
O2546      H2565   0.990       .  S
O2546      H2569   0.990       .  S
O2547      H2561   0.990       .  S
O2547      H2568   0.990       .  S
O2548      C2552   1.289       .  A
O2549      C2552   1.284       .  A
O2550      H2560   0.990       .  S
O2551      H2564   0.990       .  S
C2552      C4195   1.493       .  S
Zr2575     O2576   2.442   1_565  S
Zr2575     O2577   2.462   1_455  S
Zr2575     O2578   2.470   1_465  S
Zr2575     O2581   2.462       .  S
Zr2575     O2583   2.385   1_455  S
Zr2575     O2584   2.380   1_455  S
Zr2575     O2585   2.423   1_464  S
Zr2575     O2586   2.420   1_554  S
O2576      H2632   0.991       .  S
O2576      H2640   0.990       .  S
O2577      C2597   1.289       .  A
O2578      C2599   1.289       .  A
O2579     Zr2589   2.424   1_554  S
O2579      C2598   1.283       .  A
O2580     Zr2588   2.461   1_554  S
O2580      C2599   1.289       .  A
O2581      C2598   1.289       .  A
O2582     Zr2590   2.393       .  S
O2582      C2597   1.274       .  A
O2583     Zr2588   2.411   1_564  S
O2583     Zr2590   2.396       .  S
O2584     Zr2589   2.386   1_654  S
O2584     Zr2590   2.376       .  S
O2584      H2619   0.966   1_655  S
O2585     Zr2588   2.410       .  S
O2585     Zr2605   2.404   1_545  S
O2585      H2622   0.964       .  S
O2586     Zr2589   2.395       .  S
O2586     Zr2605   2.415   1_455  S
Zr2587     O2612   2.443       .  S
Zr2587     O2606   2.443       .  S
Zr2587     O2614   2.440       .  S
Zr2587     O2602   2.446       .  S
Zr2587     O2593   2.398   1_556  S
Zr2587     O2594   2.403   1_556  S
Zr2587     O2595   2.376       .  S
Zr2587     O2596   2.380       .  S
Zr2588     O2607   2.437       .  S
Zr2588     O2600   2.434   1_556  S
Zr2588     O2601   2.467   1_545  S
Zr2588     O2594   2.404   1_546  S
Zr2588     O2595   2.407   1_545  S
Zr2589     O2591   2.436       .  S
Zr2589     O2613   2.437   1_556  S
Zr2589     O2615   2.415       .  S
Zr2589     O2593   2.396   1_456  S
Zr2589     O2596   2.395   1_455  S
Zr2590     O2616   2.438       .  S
Zr2590     O2617   2.435       .  S
Zr2590     O2592   2.437       .  S
Zr2590     O2593   2.383       .  S
Zr2590     O2594   2.377       .  S
O2591      H2628   0.990       .  S
O2592      H2623   0.990       .  S
O2592      H2637   0.990       .  S
O2594      H2620   0.965       .  S
O2595     Zr2605   2.382       .  S
O2596     Zr2605   2.372       .  S
O2596      H2621   0.965       .  S
C2597      C3310   1.472       .  S
C2598      C3201   1.485       .  S
C2599      C3240   1.495       .  S
O2600      H2636   0.990       .  S
O2601      C2603   1.289       .  A
O2602      C2603   1.291       .  A
C2603      C5091   1.499       .  S
O2604     Zr2605   2.438   1_445  S
O2604      H2633   0.991       .  S
Zr2605     O2608   2.438   1_565  S
Zr2605     O2609   2.440   1_655  S
Zr2605     O2610   2.447       .  S
O2606      C2611   1.289       .  A
O2607      H2624   0.990       .  S
O2607      H2639   0.990       .  S
O2608      H2625   0.990       .  S
O2609      H2629   0.990       .  S
O2609      H2638   0.990       .  S
O2610      C2611   1.283       .  A
C2611      C5021   1.505       .  S
O2612      H2631   0.990       .  S
O2612      H2635   0.991       .  S
O2613      H2627   0.990       .  S
O2613      H2634   0.990       .  S
O2614      C2618   1.285       .  A
O2615      C2618   1.279   1_455  A
O2616      H2626   0.990       .  S
O2617      H2630   0.990       .  S
C2618      C4965   1.461       .  S
Zr2641     O2642   2.437   1_655  S
Zr2641     O2643   2.493   1_655  S
Zr2641     O2644   2.435       .  S
Zr2641     O2647   2.417   1_655  S
Zr2641     O2649   2.377       .  S
Zr2641     O2650   2.379       .  S
Zr2641     O2651   2.431       .  S
Zr2641     O2652   2.412   1_655  S
O2642      H2698   0.990       .  S
O2642      H2706   0.990       .  S
O2643      C2663   1.293   1_455  A
O2644      C2665   1.280       .  A
O2645     Zr2655   2.482       .  S
O2645      C2664   1.293       .  A
O2646     Zr2654   2.450       .  S
O2646      C2665   1.286       .  A
O2647      C2664   1.282       .  A
O2648     Zr2656   2.425       .  S
O2648      C2663   1.281       .  A
O2649     Zr2654   2.417       .  S
O2649     Zr2656   2.390       .  S
O2650     Zr2655   2.399   1_655  S
O2650     Zr2656   2.385       .  S
O2650      H2685   0.966   1_655  S
O2651     Zr2654   2.400       .  S
O2651     Zr2671   2.396       .  S
O2651      H2688   0.963       .  S
O2652     Zr2655   2.378       .  S
O2652     Zr2671   2.399   1_455  S
Zr2653     O2678   2.435       .  S
Zr2653     O2672   2.450       .  S
Zr2653     O2680   2.430       .  S
Zr2653     O2668   2.442       .  S
Zr2653     O2659   2.407       .  S
Zr2653     O2660   2.408       .  S
Zr2653     O2661   2.373       .  S
Zr2653     O2662   2.390       .  S
Zr2654     O2673   2.437       .  S
Zr2654     O2666   2.436       .  S
Zr2654     O2667   2.459       .  S
Zr2654     O2660   2.402       .  S
Zr2654     O2661   2.404       .  S
Zr2655     O2657   2.439       .  S
Zr2655     O2679   2.437       .  S
Zr2655     O2681   2.452   1_455  S
Zr2655     O2659   2.406   1_455  S
Zr2655     O2662   2.401   1_455  S
Zr2656     O2682   2.436       .  S
Zr2656     O2683   2.436       .  S
Zr2656     O2658   2.438       .  S
Zr2656     O2659   2.391       .  S
Zr2656     O2660   2.394       .  S
O2657      H2694   0.990       .  S
O2658      H2689   0.990       .  S
O2658      H2703   0.989       .  S
O2660      H2686   0.965       .  S
O2661     Zr2671   2.384       .  S
O2662     Zr2671   2.370       .  S
O2662      H2687   0.965       .  S
C2663      C3257   1.506   1_655  S
C2664      C3408   1.493       .  S
C2665      C3324   1.474       .  S
O2666      H2702   0.990       .  S
O2667      C2669   1.287       .  A
O2668      C2669   1.287       .  A
C2669      C3579   1.492       .  S
O2670     Zr2671   2.440   1_455  S
O2670      H2699   0.990       .  S
Zr2671     O2674   2.436       .  S
Zr2671     O2675   2.439   1_655  S
Zr2671     O2676   2.442       .  S
O2672      C2677   1.284       .  A
O2673      H2690   0.990       .  S
O2673      H2705   0.990       .  S
O2674      H2691   0.990       .  S
O2675      H2695   0.990       .  S
O2675      H2704   0.990       .  S
O2676      C2677   1.286       .  A
C2677      C3495   1.501       .  S
O2678      H2697   0.989       .  S
O2678      H2701   0.989       .  S
O2679      H2693   0.990       .  S
O2679      H2700   0.990       .  S
O2680      C2684   1.282       .  A
O2681      C2684   1.290       .  A
O2682      H2692   0.990       .  S
O2683      H2696   0.991       .  S
C2684      C3439   1.478       .  S
Zr2707     O2708   2.443       .  S
Zr2707     O2709   2.480       .  S
Zr2707     O2710   2.453       .  S
Zr2707     O2713   2.460       .  S
Zr2707     O2715   2.387       .  S
Zr2707     O2716   2.382       .  S
Zr2707     O2717   2.424       .  S
Zr2707     O2718   2.400       .  S
O2708      H2764   0.990       .  S
O2708      H2772   0.990       .  S
O2709      C2729   1.293       .  A
O2710      C2731   1.287       .  A
O2711     Zr2721   2.444       .  S
O2711      C2730   1.286       .  A
O2712     Zr2720   2.470       .  S
O2712      C2731   1.292       .  A
O2713      C2730   1.289       .  A
O2714     Zr2722   2.386       .  S
O2714      C2729   1.271       .  A
O2715     Zr2720   2.409       .  S
O2715     Zr2722   2.385       .  S
O2716     Zr2721   2.397       .  S
O2716     Zr2722   2.388       .  S
O2716      H2751   0.965       .  S
O2717     Zr2720   2.404       .  S
O2717     Zr2737   2.386       .  S
O2717      H2754   0.964       .  S
O2718     Zr2721   2.387       .  S
O2718     Zr2737   2.390       .  S
Zr2719     O2744   2.437       .  S
Zr2719     O2738   2.475       .  S
Zr2719     O2746   2.457       .  S
Zr2719     O2734   2.478       .  S
Zr2719     O2725   2.392       .  S
Zr2719     O2726   2.419       .  S
Zr2719     O2727   2.387       .  S
Zr2719     O2728   2.392       .  S
Zr2720     O2739   2.435       .  S
Zr2720     O2732   2.436       .  S
Zr2720     O2733   2.474       .  S
Zr2720     O2726   2.401       .  S
Zr2720     O2727   2.411       .  S
Zr2721     O2723   2.439       .  S
Zr2721     O2745   2.437       .  S
Zr2721     O2747   2.438       .  S
Zr2721     O2725   2.389       .  S
Zr2721     O2728   2.402       .  S
Zr2722     O2748   2.437       .  S
Zr2722     O2749   2.434       .  S
Zr2722     O2724   2.437       .  S
Zr2722     O2725   2.376       .  S
Zr2722     O2726   2.378       .  S
O2723      H2760   0.990       .  S
O2724      H2755   0.990       .  S
O2724      H2769   0.990       .  S
O2726      H2752   0.963       .  S
O2727     Zr2737   2.389       .  S
O2728     Zr2737   2.379       .  S
O2728      H2753   0.966       .  S
C2729      C4391   1.476       .  S
C2730      C4307   1.488       .  S
C2731      C4181   1.491       .  S
O2732      H2768   0.990       .  S
O2733      C2735   1.294       .  A
O2734      C2735   1.292       .  A
C2735      C3747   1.512       .  S
O2736     Zr2737   2.436       .  S
O2736      H2765   0.990       .  S
Zr2737     O2740   2.437       .  S
Zr2737     O2741   2.438       .  S
Zr2737     O2742   2.409       .  S
O2738      C2743   1.289       .  A
O2739      H2756   0.990       .  S
O2739      H2771   0.990       .  S
O2740      H2757   0.990       .  S
O2741      H2761   0.990       .  S
O2741      H2770   0.990       .  S
O2742      C2743   1.278       .  A
C2743      C3705   1.485       .  S
O2744      H2763   0.989       .  S
O2744      H2767   0.990       .  S
O2745      H2759   0.990       .  S
O2745      H2766   0.990       .  S
O2746      C2750   1.289       .  A
O2747      C2750   1.285       .  A
O2748      H2758   0.990       .  S
O2749      H2762   0.990       .  S
C2750      C3898   1.474       .  S
Zr2773     O2774   2.442       .  S
Zr2773     O2775   2.490       .  S
Zr2773     O2776   2.462       .  S
Zr2773     O2779   2.468       .  S
Zr2773     O2781   2.382       .  S
Zr2773     O2782   2.392       .  S
Zr2773     O2783   2.424   1_455  S
Zr2773     O2784   2.405   1_455  S
O2774      H2830   0.990       .  S
O2774      H2838   0.990       .  S
O2775      C2795   1.292       .  A
O2776      C2797   1.289       .  A
O2777     Zr2787   2.435   1_455  S
O2777      C2796   1.285       .  A
O2778     Zr2786   2.499       .  S
O2778      C2797   1.296   1_655  A
O2779      C2796   1.291       .  A
O2780     Zr2788   2.384       .  S
O2780      C2795   1.274       .  A
O2781     Zr2786   2.405   1_455  S
O2781     Zr2788   2.393       .  S
O2782     Zr2787   2.405   1_455  S
O2782     Zr2788   2.385       .  S
O2782      H2817   0.966       .  S
O2783     Zr2786   2.399       .  S
O2783     Zr2803   2.379       .  S
O2783      H2820   0.961       .  S
O2784     Zr2787   2.384       .  S
O2784     Zr2803   2.382       .  S
Zr2785     O2810   2.434       .  S
Zr2785     O2804   2.469       .  S
Zr2785     O2812   2.460       .  S
Zr2785     O2800   2.450       .  S
Zr2785     O2791   2.394   1_655  S
Zr2785     O2792   2.417       .  S
Zr2785     O2793   2.394       .  S
Zr2785     O2794   2.381       .  S
Zr2786     O2805   2.435       .  S
Zr2786     O2798   2.435   1_655  S
Zr2786     O2799   2.470       .  S
Zr2786     O2792   2.412       .  S
Zr2786     O2793   2.412       .  S
Zr2787     O2789   2.435       .  S
Zr2787     O2811   2.437   1_655  S
Zr2787     O2813   2.450       .  S
Zr2787     O2791   2.386   1_655  S
Zr2787     O2794   2.398       .  S
Zr2788     O2814   2.436       .  S
Zr2788     O2815   2.437       .  S
Zr2788     O2790   2.438       .  S
Zr2788     O2791   2.383       .  S
Zr2788     O2792   2.369   1_455  S
O2789      H2826   0.990       .  S
O2790      H2821   0.990       .  S
O2790      H2835   0.990       .  S
O2792      H2818   0.963   1_655  S
O2793     Zr2803   2.385       .  S
O2794     Zr2803   2.377       .  S
O2794      H2819   0.966       .  S
C2795      C4083   1.479       .  S
C2796      C4010   1.488       .  S
C2797      C3957   1.504       .  S
O2798      H2834   0.990       .  S
O2799      C2801   1.295       .  A
O2800      C2801   1.285       .  A
C2801      C3509   1.495       .  S
O2802     Zr2803   2.434       .  S
O2802      H2831   0.990       .  S
Zr2803     O2806   2.438       .  S
Zr2803     O2807   2.437       .  S
Zr2803     O2808   2.393       .  S
O2804      C2809   1.289       .  A
O2805      H2822   0.990       .  S
O2805      H2837   0.990       .  S
O2806      H2823   0.991       .  S
O2807      H2827   0.990       .  S
O2807      H2836   0.990       .  S
O2808      C2809   1.276       .  A
C2809      C3663   1.501       .  S
O2810      H2829   0.990       .  S
O2810      H2833   0.989       .  S
O2811      H2825   0.990       .  S
O2811      H2832   0.990       .  S
O2812      C2816   1.289       .  A
O2813      C2816   1.286       .  A
O2814      H2824   0.990       .  S
O2815      H2828   0.990       .  S
C2816      C3453   1.492       .  S
Zr2839     O2840   2.440       .  S
Zr2839     O2841   2.460       .  S
Zr2839     O2842   2.453       .  S
Zr2839     O2845   2.463       .  S
Zr2839     O2847   2.380       .  S
Zr2839     O2848   2.385       .  S
Zr2839     O2849   2.417       .  S
Zr2839     O2850   2.402       .  S
O2840      H2896   0.990       .  S
O2840      H2904   0.991       .  S
O2841      C2861   1.290       .  A
O2842      C2863   1.286       .  A
O2843     Zr2853   2.501   1_554  S
O2843      C2862   1.296       .  A
O2844     Zr2852   2.448       .  S
O2844      C2863   1.286       .  A
O2845      C2862   1.292       .  A
O2846     Zr2854   2.405   1_554  S
O2846      C2861   1.276       .  A
O2847     Zr2852   2.401       .  S
O2847     Zr2854   2.381   1_554  S
O2848     Zr2853   2.408   1_554  S
O2848     Zr2854   2.391   1_554  S
O2848      H2883   0.966   1_554  S
O2849     Zr2852   2.405       .  S
O2849     Zr2869   2.406       .  S
O2849      H2886   0.966       .  S
O2850     Zr2853   2.390   1_554  S
O2850     Zr2869   2.396       .  S
Zr2851     O2876   2.437       .  S
Zr2851     O2870   2.479       .  S
Zr2851     O2878   2.453       .  S
Zr2851     O2866   2.486       .  S
Zr2851     O2857   2.406       .  S
Zr2851     O2858   2.418   1_556  S
Zr2851     O2859   2.382   1_556  S
Zr2851     O2860   2.401       .  S
Zr2852     O2871   2.435       .  S
Zr2852     O2864   2.434       .  S
Zr2852     O2865   2.438       .  S
Zr2852     O2858   2.404       .  S
Zr2852     O2859   2.406       .  S
Zr2853     O2855   2.436       .  S
Zr2853     O2877   2.438       .  S
Zr2853     O2879   2.470       .  S
Zr2853     O2857   2.400       .  S
Zr2853     O2860   2.410       .  S
Zr2854     O2880   2.436       .  S
Zr2854     O2881   2.435       .  S
Zr2854     O2856   2.437   1_556  S
Zr2854     O2857   2.379       .  S
Zr2854     O2858   2.396   1_556  S
O2855      H2892   0.990       .  S
O2856      H2887   0.990   1_554  S
O2856      H2901   0.990       .  S
O2858      H2884   0.965   1_554  S
O2859     Zr2869   2.381       .  S
O2860     Zr2869   2.383   1_556  S
O2860      H2885   0.966       .  S
C2861      C3831   1.489       .  S
C2862      C3761   1.529       .  S
C2863      C3912   1.486       .  S
O2864      H2900   0.990       .  S
O2865      C2867   1.283       .  A
O2866      C2867   1.295   1_556  A
C2867      C4713   1.495       .  S
O2868     Zr2869   2.437       .  S
O2868      H2897   0.990       .  S
Zr2869     O2872   2.436       .  S
Zr2869     O2873   2.437       .  S
Zr2869     O2874   2.436       .  S
O2870      C2875   1.290       .  A
O2871      H2888   0.990       .  S
O2871      H2903   0.990       .  S
O2872      H2889   0.990       .  S
O2873      H2893   0.990       .  S
O2873      H2902   0.990       .  S
O2874      C2875   1.285   1_554  A
C2875      C4923   1.505       .  S
O2876      H2895   0.990       .  S
O2876      H2899   0.989       .  S
O2877      H2891   0.990       .  S
O2877      H2898   0.990       .  S
O2878      C2882   1.287       .  A
O2879      C2882   1.293       .  A
O2880      H2890   0.990       .  S
O2881      H2894   0.990       .  S
C2882      C4839   1.492       .  S
Zr2905     O2906   2.442       .  S
Zr2905     O2907   2.468       .  S
Zr2905     O2908   2.454       .  S
Zr2905     O2911   2.439       .  S
Zr2905     O2913   2.387       .  S
Zr2905     O2914   2.380   1_565  S
Zr2905     O2915   2.418       .  S
Zr2905     O2916   2.410   1_565  S
O2906      H2962   0.990       .  S
O2906      H2970   0.990       .  S
O2907      C2927   1.288   1_565  A
O2908      C2929   1.290       .  A
O2909     Zr2919   2.470       .  S
O2909      C2928   1.289       .  A
O2910     Zr2918   2.441       .  S
O2910      C2929   1.283       .  A
O2911      C2928   1.287   1_565  A
O2912     Zr2920   2.376       .  S
O2912      C2927   1.276       .  A
O2913     Zr2918   2.409       .  S
O2913     Zr2920   2.385   1_565  S
O2914     Zr2919   2.390       .  S
O2914     Zr2920   2.382       .  S
O2914      H2949   0.965       .  S
O2915     Zr2918   2.406       .  S
O2915     Zr2935   2.402   1_565  S
O2915      H2952   0.965       .  S
O2916     Zr2919   2.390       .  S
O2916     Zr2935   2.400       .  S
Zr2917     O2942   2.433       .  S
Zr2917     O2936   2.461       .  S
Zr2917     O2944   2.468       .  S
Zr2917     O2932   2.464       .  S
Zr2917     O2923   2.396       .  S
Zr2917     O2924   2.412       .  S
Zr2917     O2925   2.381       .  S
Zr2917     O2926   2.397       .  S
Zr2918     O2937   2.435       .  S
Zr2918     O2930   2.435       .  S
Zr2918     O2931   2.453   1_565  S
Zr2918     O2924   2.399   1_565  S
Zr2918     O2925   2.395   1_565  S
Zr2919     O2921   2.433       .  S
Zr2919     O2943   2.440       .  S
Zr2919     O2945   2.431       .  S
Zr2919     O2923   2.399       .  S
Zr2919     O2926   2.417       .  S
Zr2920     O2946   2.435       .  S
Zr2920     O2947   2.437       .  S
Zr2920     O2922   2.438       .  S
Zr2920     O2923   2.372       .  S
Zr2920     O2924   2.370       .  S
O2921      H2958   0.990       .  S
O2922      H2953   0.990       .  S
O2922      H2967   0.990       .  S
O2924      H2950   0.963       .  S
O2925     Zr2935   2.384       .  S
O2926     Zr2935   2.380       .  S
O2926      H2951   0.967       .  S
C2927      C4265   1.482   1_545  S
C2928      C4209   1.495       .  S
C2929      C4332   1.489       .  S
O2930      H2966   0.990       .  S
O2931      C2933   1.291       .  A
O2932      C2933   1.290       .  A
C2933      C4461   1.499       .  S
O2934     Zr2935   2.436   1_565  S
O2934      H2963   0.990       .  S
Zr2935     O2938   2.435   1_545  S
Zr2935     O2939   2.436       .  S
Zr2935     O2940   2.430       .  S
O2936      C2941   1.289       .  A
O2937      H2954   0.990       .  S
O2937      H2969   0.990       .  S
O2938      H2955   0.989       .  S
O2939      H2959   0.990       .  S
O2939      H2968   0.990       .  S
O2940      C2941   1.282       .  A
C2941      C4517   1.492       .  S
O2942      H2961   0.990       .  S
O2942      H2965   0.991       .  S
O2943      H2957   0.990       .  S
O2943      H2964   0.990       .  S
O2944      C2948   1.289       .  A
O2945      C2948   1.283       .  A
O2946      H2956   0.990       .  S
O2947      H2960   0.990       .  S
C2948      C4668   1.479       .  S
Zr2971     O2972   2.441       .  S
Zr2971     O2973   2.453       .  S
Zr2971     O2974   2.429       .  S
Zr2971     O2977   2.435       .  S
Zr2971     O2979   2.376       .  S
Zr2971     O2980   2.385       .  S
Zr2971     O2981   2.414       .  S
Zr2971     O2982   2.397       .  S
O2972      H3028   0.988       .  S
O2972      H3036   0.991       .  S
O2973      C2993   1.284       .  A
O2974      C2995   1.285       .  A
O2975     Zr2985   2.462       .  S
O2975      C2994   1.288       .  A
O2976     Zr2984   2.447       .  S
O2976      C2995   1.285       .  A
O2977      C2994   1.285       .  A
O2978     Zr2986   2.427       .  S
O2978      C2993   1.284       .  A
O2979     Zr2984   2.402       .  S
O2979     Zr2986   2.382       .  S
O2980     Zr2985   2.408       .  S
O2980     Zr2986   2.379       .  S
O2980      H3015   0.967       .  S
O2981     Zr2984   2.402       .  S
O2981     Zr3001   2.374       .  S
O2981      H3018   0.964       .  S
O2982     Zr2985   2.384       .  S
O2982     Zr3001   2.378       .  S
Zr2983     O3008   2.442       .  S
Zr2983     O3002   2.482       .  S
Zr2983     O3010   2.489       .  S
Zr2983     O2998   2.487       .  S
Zr2983     O2989   2.410       .  S
Zr2983     O2990   2.424       .  S
Zr2983     O2991   2.382       .  S
Zr2983     O2992   2.399       .  S
Zr2984     O3003   2.435       .  S
Zr2984     O2996   2.434       .  S
Zr2984     O2997   2.441       .  S
Zr2984     O2990   2.408       .  S
Zr2984     O2991   2.403       .  S
Zr2985     O2987   2.436       .  S
Zr2985     O3009   2.438       .  S
Zr2985     O3011   2.441       .  S
Zr2985     O2989   2.394       .  S
Zr2985     O2992   2.414       .  S
Zr2986     O3012   2.437       .  S
Zr2986     O3013   2.438       .  S
Zr2986     O2988   2.435       .  S
Zr2986     O2989   2.389       .  S
Zr2986     O2990   2.394       .  S
O2987      H3024   0.990       .  S
O2988      H3019   0.990       .  S
O2988      H3033   0.990       .  S
O2990      H3016   0.964       .  S
O2991     Zr3001   2.388       .  S
O2992     Zr3001   2.386       .  S
O2992      H3017   0.964       .  S
C2993      C4500   1.496       .  S
C2994      C4570   1.486       .  S
C2995      C4643   1.475       .  S
O2996      H3032   0.990       .  S
O2997      C2999   1.284       .  A
O2998      C2999   1.295       .  A
C2999      C3551   1.487       .  S
O3000     Zr3001   2.435       .  S
O3000      H3029   0.990       .  S
Zr3001     O3004   2.437       .  S
Zr3001     O3005   2.438       .  S
Zr3001     O3006   2.378       .  S
O3002      C3007   1.291       .  A
O3003      H3020   0.990       .  S
O3003      H3035   0.990       .  S
O3004      H3021   0.990       .  S
O3005      H3025   0.989       .  S
O3005      H3034   0.990       .  S
O3006      C3007   1.272       .  A
C3007      C3635   1.472       .  S
O3008      H3027   0.990       .  S
O3008      H3031   0.990       .  S
O3009      H3023   0.990       .  S
O3009      H3030   0.989       .  S
O3010      C3014   1.296       .  A
O3011      C3014   1.286       .  A
O3012      H3022   0.990       .  S
O3013      H3026   0.990       .  S
C3014      C3481   1.491       .  S
Zr3037     O3038   2.435       .  S
Zr3037     O3039   2.478       .  S
Zr3037     O3040   2.472       .  S
Zr3037     O3043   2.496       .  S
Zr3037     O3045   2.389       .  S
Zr3037     O3046   2.389       .  S
Zr3037     O3047   2.415   1_565  S
Zr3037     O3048   2.404   1_565  S
O3038      H3094   0.988       .  S
O3038      H3102   0.991       .  S
O3039      C3059   1.293       .  A
O3040      C3061   1.292       .  A
O3041     Zr3051   2.446       .  S
O3041      C3060   1.289       .  A
O3042     Zr3050   2.439       .  S
O3042      C3061   1.283       .  A
O3043      C3060   1.296       .  A
O3044     Zr3052   2.417       .  S
O3044      C3059   1.279       .  A
O3045     Zr3050   2.405       .  S
O3045     Zr3052   2.384       .  S
O3046     Zr3051   2.401       .  S
O3046     Zr3052   2.381       .  S
O3046      H3081   0.966       .  S
O3047     Zr3050   2.402   1_545  S
O3047     Zr3067   2.377       .  S
O3047      H3084   0.965       .  S
O3048     Zr3051   2.387   1_545  S
O3048     Zr3067   2.385       .  S
Zr3049     O3074   2.440       .  S
Zr3049     O3068   2.510       .  S
Zr3049     O3076   2.466       .  S
Zr3049     O3064   2.485       .  S
Zr3049     O3055   2.421   1_545  S
Zr3049     O3056   2.430   1_545  S
Zr3049     O3057   2.381       .  S
Zr3049     O3058   2.385       .  S
Zr3050     O3069   2.436   1_565  S
Zr3050     O3062   2.436       .  S
Zr3050     O3063   2.439   1_565  S
Zr3050     O3056   2.399       .  S
Zr3050     O3057   2.405   1_565  S
Zr3051     O3053   2.433   1_565  S
Zr3051     O3075   2.439       .  S
Zr3051     O3077   2.436   1_565  S
Zr3051     O3055   2.396       .  S
Zr3051     O3058   2.401   1_565  S
Zr3052     O3078   2.437       .  S
Zr3052     O3079   2.436       .  S
Zr3052     O3054   2.439       .  S
Zr3052     O3055   2.404       .  S
Zr3052     O3056   2.392       .  S
O3053      H3090   0.990       .  S
O3054      H3085   0.990       .  S
O3054      H3099   0.990       .  S
O3056      H3082   0.964       .  S
O3057     Zr3067   2.389       .  S
O3058     Zr3067   2.381       .  S
O3058      H3083   0.966       .  S
C3059      C5147   1.502       .  S
C3060      C4993   1.506       .  S
C3061      C5063   1.481       .  S
O3062      H3098   0.990       .  S
O3063      C3065   1.285       .  A
O3064      C3065   1.294       .  A
C3065      C4430   1.491       .  S
O3066     Zr3067   2.435       .  S
O3066      H3095   0.991       .  S
Zr3067     O3070   2.436       .  S
Zr3067     O3071   2.437       .  S
Zr3067     O3072   2.397       .  S
O3068      C3073   1.297       .  A
O3069      H3086   0.990       .  S
O3069      H3101   0.990       .  S
O3070      H3087   0.990       .  S
O3071      H3091   0.990       .  S
O3071      H3100   0.990       .  S
O3072      C3073   1.276       .  A
C3073      C4559   1.495       .  S
O3074      H3093   0.991       .  S
O3074      H3097   0.990       .  S
O3075      H3089   0.990       .  S
O3075      H3096   0.990       .  S
O3076      C3080   1.290       .  A
O3077      C3080   1.283       .  A
O3078      H3088   0.990       .  S
O3079      H3092   0.990       .  S
C3080      C4486   1.482       .  S
Zr3103     O3104   2.440       .  S
Zr3103     O3105   2.476       .  S
Zr3103     O3106   2.439       .  S
Zr3103     O3109   2.447       .  S
Zr3103     O3111   2.383   1_455  S
Zr3103     O3112   2.387       .  S
Zr3103     O3113   2.430       .  S
Zr3103     O3114   2.393       .  S
O3104      H3160   0.990       .  S
O3104      H3168   0.989       .  S
O3105      C3125   1.289       .  A
O3106      C3127   1.286   1_455  A
O3107     Zr3117   2.463       .  S
O3107      C3126   1.293       .  A
O3108     Zr3116   2.478       .  S
O3108      C3127   1.289       .  A
O3109      C3126   1.285       .  A
O3110     Zr3118   2.424       .  S
O3110      C3125   1.282   1_655  A
O3111     Zr3116   2.409       .  S
O3111     Zr3118   2.390       .  S
O3112     Zr3117   2.395       .  S
O3112     Zr3118   2.388   1_455  S
O3112      H3147   0.965       .  S
O3113     Zr3116   2.400   1_455  S
O3113     Zr3133   2.394       .  S
O3113      H3150   0.964       .  S
O3114     Zr3117   2.362       .  S
O3114     Zr3133   2.374       .  S
Zr3115     O3140   2.441       .  S
Zr3115     O3134   2.457       .  S
Zr3115     O3142   2.450       .  S
Zr3115     O3130   2.467       .  S
Zr3115     O3121   2.405       .  S
Zr3115     O3122   2.418       .  S
Zr3115     O3123   2.387       .  S
Zr3115     O3124   2.388   1_655  S
Zr3116     O3135   2.437       .  S
Zr3116     O3128   2.435       .  S
Zr3116     O3129   2.456       .  S
Zr3116     O3122   2.408       .  S
Zr3116     O3123   2.416       .  S
Zr3117     O3119   2.437       .  S
Zr3117     O3141   2.437       .  S
Zr3117     O3143   2.427       .  S
Zr3117     O3121   2.399   1_455  S
Zr3117     O3124   2.398       .  S
Zr3118     O3144   2.435       .  S
Zr3118     O3145   2.435       .  S
Zr3118     O3120   2.437       .  S
Zr3118     O3121   2.389       .  S
Zr3118     O3122   2.404       .  S
O3119      H3156   0.990       .  S
O3120      H3151   0.990       .  S
O3120      H3165   0.990       .  S
O3122      H3148   0.965       .  S
O3123     Zr3133   2.379   1_655  S
O3124     Zr3133   2.378       .  S
O3124      H3149   0.964       .  S
C3125      C3985   1.500       .  S
C3126      C4139   1.491       .  S
C3127      C3929   1.494       .  S
O3128      H3164   0.990       .  S
O3129      C3131   1.290       .  A
O3130      C3131   1.289       .  A
C3131      C5161   1.498       .  S
O3132     Zr3133   2.437       .  S
O3132      H3161   0.990       .  S
Zr3133     O3136   2.434   1_455  S
Zr3133     O3137   2.438       .  S
Zr3133     O3138   2.416       .  S
O3134      C3139   1.285       .  A
O3135      H3152   0.990       .  S
O3135      H3167   0.990       .  S
O3136      H3153   0.990       .  S
O3137      H3157   0.990       .  S
O3137      H3166   0.990       .  S
O3138      C3139   1.280   1_455  A
C3139      C4937   1.478       .  S
O3140      H3159   0.990       .  S
O3140      H3163   0.990       .  S
O3141      H3155   0.990       .  S
O3141      H3162   0.990       .  S
O3142      C3146   1.287   1_655  A
O3143      C3146   1.282       .  A
O3144      H3154   0.990   1_655  S
O3145      H3158   0.990       .  S
C3146      C5004   1.466   1_455  S
C3169      C3170   1.413       .  A
C3169      C3174   1.399       .  A
C3169      H3176   1.081       .  S
C3170      C3171   1.419       .  A
C3171      C3172   1.419       .  A
C3171      N3178   1.425       .  S
C3172      C3173   1.413       .  A
C3172      H3177   1.084       .  S
C3173      C3174   1.408       .  A
C3174      N3175   1.427       .  S
N3175      O3179   1.262   1_554  A
N3175      O3180   1.262       .  A
N3178      O3182   1.262       .  A
N3178      O3181   1.262   1_554  A
C3183      C3184   1.402       .  A
C3183      C3188   1.392       .  A
C3183      H3190   1.084       .  S
C3184      C3185   1.411   1_545  A
C3185      C3186   1.415       .  A
C3185      N3192   1.427       .  S
C3186      C3187   1.412   1_565  A
C3186      H3191   1.084       .  S
C3187      C3188   1.409       .  A
C3188      N3189   1.426       .  S
N3189      O3193   1.262       .  A
N3189      O3194   1.261       .  A
N3192      O3196   1.261       .  A
N3192      O3195   1.262       .  A
C3197      C3198   1.406       .  A
C3197      C3202   1.404       .  A
C3197      H3204   1.084       .  S
C3198      C3199   1.418       .  A
C3199      C3200   1.401       .  A
C3199      N3206   1.427   1_554  S
C3200      C3201   1.399       .  A
C3200      H3205   1.085   1_554  S
C3201      C3202   1.413       .  A
C3202      N3203   1.426       .  S
N3203      O3207   1.262       .  A
N3203      O3208   1.262       .  A
N3206      O3210   1.262       .  A
N3206      O3209   1.262       .  A
C3211      C3212   1.402       .  A
C3211      C3216   1.396       .  A
C3211      H3218   1.085       .  S
C3212      C3213   1.415       .  A
C3213      C3214   1.394       .  A
C3213      N3220   1.425       .  S
C3214      C3215   1.399       .  A
C3214      H3219   1.085       .  S
C3215      C3216   1.411       .  A
C3216      N3217   1.426       .  S
N3217      O3221   1.261       .  A
N3217      O3222   1.262       .  A
N3220      O3224   1.262       .  A
N3220      O3223   1.262       .  A
C3225      C3226   1.393       .  A
C3225      C3230   1.404       .  A
C3225      H3232   1.084       .  S
C3226      C3227   1.421   1_556  A
C3227      C3228   1.415       .  A
C3227      N3234   1.440       .  S
C3228      C3229   1.407       .  A
C3228      H3233   1.083       .  S
C3229      C3230   1.428   1_554  A
C3230      N3231   1.427       .  S
N3231      O3235   1.261       .  A
N3231      O3236   1.262       .  A
N3234      O3238   1.262       .  A
N3234      O3237   1.262       .  A
C3239      C3240   1.401   1_556  A
C3239      C3244   1.407       .  A
C3239      H3246   1.085       .  S
C3240      C3241   1.414       .  A
C3241      C3242   1.409       .  A
C3241      N3248   1.423       .  S
C3242      C3243   1.403       .  A
C3242      H3247   1.085       .  S
C3243      C3244   1.416   1_554  A
C3244      N3245   1.425       .  S
N3245      O3249   1.262   1_655  A
N3245      O3250   1.262       .  A
N3248      O3252   1.262       .  A
N3248      O3251   1.260       .  A
C3253      C3254   1.397       .  A
C3253      C3258   1.408       .  A
C3253      H3260   1.085       .  S
C3254      C3255   1.417   1_455  A
C3255      C3256   1.410       .  A
C3255      N3262   1.424       .  S
C3256      C3257   1.403   1_655  A
C3256      H3261   1.084       .  S
C3257      C3258   1.412       .  A
C3258      N3259   1.412       .  S
N3259      O3263   1.261       .  A
N3259      O3264   1.262       .  A
N3262      O3266   1.261       .  A
N3262      O3265   1.262       .  A
C3267      C3268   1.400       .  A
C3267      C3272   1.388       .  A
C3267      H3274   1.084   1_455  S
C3268      C3269   1.415       .  A
C3269      C3270   1.393       .  A
C3269      N3276   1.425       .  S
C3270      C3271   1.398       .  A
C3270      H3275   1.084       .  S
C3271      C3272   1.412       .  A
C3272      N3273   1.428   1_455  S
N3273      O3277   1.262       .  A
N3273      O3278   1.262       .  A
N3276      O3280   1.261       .  A
N3276      O3279   1.262       .  A
C3281      C3282   1.401   1_545  A
C3281      C3286   1.397       .  A
C3281      H3288   1.084       .  S
C3282      C3283   1.418       .  A
C3283      C3284   1.399       .  A
C3283      N3290   1.426       .  S
C3284      C3285   1.395   1_565  A
C3284      H3289   1.085       .  S
C3285      C3286   1.410       .  A
C3286      N3287   1.427       .  S
N3287      O3291   1.262       .  A
N3287      O3292   1.261       .  A
N3290      O3294   1.262       .  A
N3290      O3293   1.262       .  A
C3295      C3296   1.398       .  A
C3295      C3300   1.404       .  A
C3295      H3302   1.084   1_545  S
C3296      C3297   1.408       .  A
C3297      C3298   1.397       .  A
C3297      N3304   1.423       .  S
C3298      C3299   1.400       .  A
C3298      H3303   1.084       .  S
C3299      C3300   1.421       .  A
C3300      N3301   1.427   1_545  S
N3301      O3305   1.262       .  A
N3301      O3306   1.262       .  A
N3304      O3308   1.261       .  A
N3304      O3307   1.261       .  A
C3309      C3310   1.394       .  A
C3309      C3314   1.399   1_655  A
C3309      H3316   1.084   1_655  S
C3310      C3311   1.400   1_565  A
C3311      C3312   1.405       .  A
C3311      N3318   1.423       .  S
C3312      C3313   1.409   1_545  A
C3312      H3317   1.085       .  S
C3313      C3314   1.416   1_655  A
C3314      N3315   1.426       .  S
N3315      O3319   1.262   1_455  A
N3315      O3320   1.261       .  A
N3318      O3322   1.259       .  A
N3318      O3321   1.262       .  A
C3323      C3324   1.391       .  A
C3323      C3328   1.400       .  A
C3323      H3330   1.084       .  S
C3324      C3325   1.415       .  A
C3325      C3326   1.401       .  A
C3325      N3332   1.427   1_655  S
C3326      C3327   1.399       .  A
C3326      H3331   1.084   1_655  S
C3327      C3328   1.423       .  A
C3328      N3329   1.426       .  S
N3329      O3333   1.262       .  A
N3329      O3334   1.262       .  A
N3332      O3336   1.261       .  A
N3332      O3335   1.262   1_455  A
C3337      C3338   1.399       .  A
C3337      C3342   1.401       .  A
C3337      H3344   1.085       .  S
C3338      C3339   1.414       .  A
C3339      C3340   1.397       .  A
C3339      N3346   1.421       .  S
C3340      C3341   1.396       .  A
C3340      H3345   1.085       .  S
C3341      C3342   1.415       .  A
C3342      N3343   1.424       .  S
N3343      O3347   1.262       .  A
N3343      O3348   1.262       .  A
N3346      O3350   1.262       .  A
N3346      O3349   1.261       .  A
C3351      C3352   1.395       .  A
C3351      C3356   1.391       .  A
C3351      H3358   1.084       .  S
C3352      C3353   1.416       .  A
C3353      C3354   1.390       .  A
C3353      N3360   1.423       .  S
C3354      C3355   1.395       .  A
C3354      H3359   1.083       .  S
C3355      C3356   1.417       .  A
C3356      N3357   1.427       .  S
N3357      O3361   1.262       .  A
N3357      O3362   1.262       .  A
N3360      O3364   1.262       .  A
N3360      O3363   1.261       .  A
C3365      C3366   1.400       .  A
C3365      C3370   1.405       .  A
C3365      H3372   1.084       .  S
C3366      C3367   1.409       .  A
C3367      C3368   1.395       .  A
C3367      N3374   1.425       .  S
C3368      C3369   1.406       .  A
C3368      H3373   1.079       .  S
C3369      C3370   1.414       .  A
C3370      N3371   1.423       .  S
N3371      O3375   1.262       .  A
N3371      O3376   1.261       .  A
N3374      O3378   1.259       .  A
N3374      O3377   1.259       .  A
C3379      C3380   1.397       .  A
C3379      C3384   1.397       .  A
C3379      H3386   1.085       .  S
C3380      C3381   1.414       .  A
C3381      C3382   1.404       .  A
C3381      N3388   1.425       .  S
C3382      C3383   1.399       .  A
C3382      H3387   1.084       .  S
C3383      C3384   1.415       .  A
C3384      N3385   1.427       .  S
N3385      O3389   1.262       .  A
N3385      O3390   1.260       .  A
N3388      O3392   1.262       .  A
N3388      O3391   1.262       .  A
C3393      C3394   1.402       .  A
C3393      C3398   1.397       .  A
C3393      H3400   1.084       .  S
C3394      C3395   1.416       .  A
C3395      C3396   1.414       .  A
C3395      N3402   1.425       .  S
C3396      C3397   1.411       .  A
C3396      H3401   1.084       .  S
C3397      C3398   1.418       .  A
C3398      N3399   1.427       .  S
N3399      O3403   1.261       .  A
N3399      O3404   1.261       .  A
N3402      O3406   1.262       .  A
N3402      O3405   1.262       .  A
C3407      C3408   1.404       .  A
C3407      C3412   1.416       .  A
C3407      H3414   1.083       .  S
C3408      C3409   1.410       .  A
C3409      C3410   1.385       .  A
C3409      N3416   1.415       .  S
C3410      C3411   1.389       .  A
C3410      H3415   1.083       .  S
C3411      C3412   1.417       .  A
C3412      N3413   1.423       .  S
N3413      O3417   1.261       .  A
N3413      O3418   1.262       .  A
N3416      O3420   1.259       .  A
N3416      O3419   1.259       .  A
C3421      C3422   1.399       .  A
C3421      C3426   1.395       .  A
C3421      H3428   1.085       .  S
C3422      C3423   1.417       .  A
C3423      C3424   1.405       .  A
C3423      N3430   1.426       .  S
C3424      C3425   1.400       .  A
C3424      H3429   1.084       .  S
C3425      C3426   1.413       .  A
C3426      N3427   1.425       .  S
N3427      O3431   1.262       .  A
N3427      O3432   1.262       .  A
N3430      O3434   1.262       .  A
N3430      O3433   1.262       .  A
C3435      C3436   1.400       .  A
C3435      C3440   1.399       .  A
C3435      H3442   1.084       .  S
C3436      C3437   1.417       .  A
C3437      C3438   1.398       .  A
C3437      N3444   1.427       .  S
C3438      C3439   1.397       .  A
C3438      H3443   1.084       .  S
C3439      C3440   1.416       .  A
C3440      N3441   1.427       .  S
N3441      O3445   1.261       .  A
N3441      O3446   1.262       .  A
N3444      O3448   1.262   1_655  A
N3444      O3447   1.262       .  A
C3449      C3450   1.396       .  A
C3449      C3454   1.398       .  A
C3449      H3456   1.084       .  S
C3450      C3451   1.404       .  A
C3451      C3452   1.411       .  A
C3451      N3458   1.428       .  S
C3452      C3453   1.413       .  A
C3452      H3457   1.084       .  S
C3453      C3454   1.415       .  A
C3454      N3455   1.425       .  S
N3455      O3459   1.262       .  A
N3455      O3460   1.262       .  A
N3458      O3462   1.262       .  A
N3458      O3461   1.262   1_655  A
C3463      C3464   1.409       .  A
C3463      C3468   1.403       .  A
C3463      H3470   1.084       .  S
C3464      C3465   1.414       .  A
C3465      C3466   1.390       .  A
C3465      N3472   1.424       .  S
C3466      C3467   1.399       .  A
C3466      H3471   1.085       .  S
C3467      C3468   1.410       .  A
C3468      N3469   1.425       .  S
N3469      O3473   1.262       .  A
N3469      O3474   1.262       .  A
N3472      O3476   1.259       .  A
N3472      O3475   1.262       .  A
C3477      C3478   1.403       .  A
C3477      C3482   1.409       .  A
C3477      H3484   1.084       .  S
C3478      C3479   1.418       .  A
C3479      C3480   1.406       .  A
C3479      N3486   1.425       .  S
C3480      C3481   1.397       .  A
C3480      H3485   1.084       .  S
C3481      C3482   1.415       .  A
C3482      N3483   1.426       .  S
N3483      O3487   1.260       .  A
N3483      O3488   1.261       .  A
N3486      O3490   1.261       .  A
N3486      O3489   1.258       .  A
C3491      C3492   1.405       .  A
C3491      C3496   1.402       .  A
C3491      H3498   1.085       .  S
C3492      C3493   1.413       .  A
C3493      C3494   1.410       .  A
C3493      N3500   1.424       .  S
C3494      C3495   1.408       .  A
C3494      H3499   1.084       .  S
C3495      C3496   1.418       .  A
C3496      N3497   1.428       .  S
N3497      O3501   1.262       .  A
N3497      O3502   1.262       .  A
N3500      O3504   1.262       .  A
N3500      O3503   1.262       .  A
C3505      C3506   1.399       .  A
C3505      C3510   1.404       .  A
C3505      H3512   1.085       .  S
C3506      C3507   1.419       .  A
C3507      C3508   1.399       .  A
C3507      N3514   1.426       .  S
C3508      C3509   1.398       .  A
C3508      H3513   1.084       .  S
C3509      C3510   1.423       .  A
C3510      N3511   1.426       .  S
N3511      O3515   1.262       .  A
N3511      O3516   1.261       .  A
N3514      O3518   1.262       .  A
N3514      O3517   1.262       .  A
C3519      C3520   1.408       .  A
C3519      C3524   1.396       .  A
C3519      H3526   1.084       .  S
C3520      C3521   1.415       .  A
C3521      C3522   1.396       .  A
C3521      N3528   1.428       .  S
C3522      C3523   1.406       .  A
C3522      H3527   1.082       .  S
C3523      C3524   1.408       .  A
C3524      N3525   1.425       .  S
N3525      O3529   1.261       .  A
N3525      O3530   1.262       .  A
N3528      O3532   1.260       .  A
N3528      O3531   1.261       .  A
C3533      C3534   1.398       .  A
C3533      C3538   1.395       .  A
C3533      H3540   1.085       .  S
C3534      C3535   1.417       .  A
C3535      C3536   1.407       .  A
C3535      N3542   1.425       .  S
C3536      C3537   1.400       .  A
C3536      H3541   1.084       .  S
C3537      C3538   1.413       .  A
C3538      N3539   1.427       .  S
N3539      O3543   1.261       .  A
N3539      O3544   1.261       .  A
N3542      O3546   1.262       .  A
N3542      O3545   1.260       .  A
C3547      C3548   1.406       .  A
C3547      C3552   1.413       .  A
C3547      H3554   1.084       .  S
C3548      C3549   1.413       .  A
C3549      C3550   1.399       .  A
C3549      N3556   1.426       .  S
C3550      C3551   1.397       .  A
C3550      H3555   1.085       .  S
C3551      C3552   1.416       .  A
C3552      N3553   1.426       .  S
N3553      O3557   1.261       .  A
N3553      O3558   1.262       .  A
N3556      O3560   1.262       .  A
N3556      O3559   1.260       .  A
C3561      C3562   1.393       .  A
C3561      C3566   1.402       .  A
C3561      H3568   1.084       .  S
C3562      C3563   1.413       .  A
C3563      C3564   1.391       .  A
C3563      N3570   1.427       .  S
C3564      C3565   1.398       .  A
C3564      H3569   1.082       .  S
C3565      C3566   1.427       .  A
C3566      N3567   1.427       .  S
N3567      O3571   1.262       .  A
N3567      O3572   1.262       .  A
N3570      O3574   1.262       .  A
N3570      O3573   1.262       .  A
C3575      C3576   1.409       .  A
C3575      C3580   1.404       .  A
C3575      H3582   1.084       .  S
C3576      C3577   1.417       .  A
C3577      C3578   1.401       .  A
C3577      N3584   1.426       .  S
C3578      C3579   1.403       .  A
C3578      H3583   1.084       .  S
C3579      C3580   1.413       .  A
C3580      N3581   1.426       .  S
N3581      O3585   1.262       .  A
N3581      O3586   1.262       .  A
N3584      O3588   1.262       .  A
N3584      O3587   1.261       .  A
C3589      C3590   1.397       .  A
C3589      C3594   1.392       .  A
C3589      H3596   1.085       .  S
C3590      C3591   1.412       .  A
C3591      C3592   1.399       .  A
C3591      N3598   1.423       .  S
C3592      C3593   1.397       .  A
C3592      H3597   1.085       .  S
C3593      C3594   1.409       .  A
C3594      N3595   1.425       .  S
N3595      O3599   1.260       .  A
N3595      O3600   1.261       .  A
N3598      O3602   1.261       .  A
N3598      O3601   1.260       .  A
C3603      C3604   1.401       .  A
C3603      C3608   1.401       .  A
C3603      H3610   1.083       .  S
C3604      C3605   1.418       .  A
C3605      C3606   1.390       .  A
C3605      N3612   1.428       .  S
C3606      C3607   1.395       .  A
C3606      H3611   1.084       .  S
C3607      C3608   1.413       .  A
C3608      N3609   1.430       .  S
N3609      O3613   1.261       .  A
N3609      O3614   1.263       .  A
N3612      O3616   1.263       .  A
N3612      O3615   1.258       .  A
C3617      C3618   1.397       .  A
C3617      C3622   1.391       .  A
C3617      H3624   1.084       .  S
C3618      C3619   1.421       .  A
C3619      C3620   1.388       .  A
C3619      N3626   1.429       .  S
C3620      C3621   1.396       .  A
C3620      H3625   1.085       .  S
C3621      C3622   1.415       .  A
C3622      N3623   1.426       .  S
N3623      O3627   1.262       .  A
N3623      O3628   1.262       .  A
N3626      O3630   1.262       .  A
N3626      O3629   1.261       .  A
C3631      C3632   1.409       .  A
C3631      C3636   1.413       .  A
C3631      H3638   1.084       .  S
C3632      C3633   1.417       .  A
C3633      C3634   1.399       .  A
C3633      N3640   1.425       .  S
C3634      C3635   1.391       .  A
C3634      H3639   1.084       .  S
C3635      C3636   1.404       .  A
C3636      N3637   1.430       .  S
N3637      O3641   1.261       .  A
N3637      O3642   1.263       .  A
N3640      O3644   1.262       .  A
N3640      O3643   1.260       .  A
C3645      C3646   1.408       .  A
C3645      C3650   1.399       .  A
C3645      H3652   1.082       .  S
C3646      C3647   1.416       .  A
C3647      C3648   1.404       .  A
C3647      N3654   1.426       .  S
C3648      C3649   1.403       .  A
C3648      H3653   1.084       .  S
C3649      C3650   1.410       .  A
C3650      N3651   1.426       .  S
N3651      O3655   1.262       .  A
N3651      O3656   1.262       .  A
N3654      O3658   1.262       .  A
N3654      O3657   1.260       .  A
C3659      C3660   1.407       .  A
C3659      C3664   1.409       .  A
C3659      H3666   1.084       .  S
C3660      C3661   1.410       .  A
C3661      C3662   1.398       .  A
C3661      N3668   1.426       .  S
C3662      C3663   1.406       .  A
C3662      H3667   1.083       .  S
C3663      C3664   1.411       .  A
C3664      N3665   1.425       .  S
N3665      O3669   1.261       .  A
N3665      O3670   1.263       .  A
N3668      O3672   1.262       .  A
N3668      O3671   1.262       .  A
C3673      C3674   1.398       .  A
C3673      C3678   1.407       .  A
C3673      H3680   1.084       .  S
C3674      C3675   1.405       .  A
C3675      C3676   1.411       .  A
C3675      N3682   1.428       .  S
C3676      C3677   1.409       .  A
C3676      H3681   1.084       .  S
C3677      C3678   1.420       .  A
C3678      N3679   1.426       .  S
N3679      O3683   1.262       .  A
N3679      O3684   1.261       .  A
N3682      O3686   1.260       .  A
N3682      O3685   1.261       .  A
C3687      C3688   1.397       .  A
C3687      C3692   1.411       .  A
C3687      H3694   1.084       .  S
C3688      C3689   1.420       .  A
C3689      C3690   1.399       .  A
C3689      N3696   1.429       .  S
C3690      C3691   1.401       .  A
C3690      H3695   1.084       .  S
C3691      C3692   1.428       .  A
C3692      N3693   1.426       .  S
N3693      O3697   1.262       .  A
N3693      O3698   1.262       .  A
N3696      O3700   1.262       .  A
N3696      O3699   1.261       .  A
C3701      C3702   1.410       .  A
C3701      C3706   1.418       .  A
C3701      H3708   1.082       .  S
C3702      C3703   1.421       .  A
C3703      C3704   1.395       .  A
C3703      N3710   1.427       .  S
C3704      C3705   1.393       .  A
C3704      H3709   1.085       .  S
C3705      C3706   1.417       .  A
C3706      N3707   1.439       .  S
N3707      O3711   1.262       .  A
N3707      O3712   1.262       .  A
N3710      O3714   1.262       .  A
N3710      O3713   1.261       .  A
C3715      C3716   1.397       .  A
C3715      C3720   1.392       .  A
C3715      H3722   1.084       .  S
C3716      C3717   1.403       .  A
C3717      C3718   1.395       .  A
C3717      N3724   1.429       .  S
C3718      C3719   1.410       .  A
C3718      H3723   1.080       .  S
C3719      C3720   1.418       .  A
C3720      N3721   1.427       .  S
N3721      O3725   1.262       .  A
N3721      O3726   1.262       .  A
N3724      O3728   1.262       .  A
N3724      O3727   1.260       .  A
C3729      C3730   1.416       .  A
C3729      C3734   1.418       .  A
C3729      H3736   1.083       .  S
C3730      C3731   1.418   1_554  A
C3731      C3732   1.402       .  A
C3731      N3738   1.424       .  S
C3732      C3733   1.394       .  A
C3732      H3737   1.084       .  S
C3733      C3734   1.405   1_556  A
C3734      N3735   1.429       .  S
N3735      O3739   1.262       .  A
N3735      O3740   1.262       .  A
N3738      O3742   1.260       .  A
N3738      O3741   1.262       .  A
C3743      C3744   1.398       .  A
C3743      C3748   1.406       .  A
C3743      H3750   1.084       .  S
C3744      C3745   1.427       .  A
C3745      C3746   1.412       .  A
C3745      N3752   1.427       .  S
C3746      C3747   1.403       .  A
C3746      H3751   1.084       .  S
C3747      C3748   1.420       .  A
C3748      N3749   1.420       .  S
N3749      O3753   1.261       .  A
N3749      O3754   1.260       .  A
N3752      O3756   1.262       .  A
N3752      O3755   1.262       .  A
C3757      C3758   1.400       .  A
C3757      C3762   1.420       .  A
C3757      H3764   1.084       .  S
C3758      C3759   1.409       .  A
C3759      C3760   1.408       .  A
C3759      N3766   1.432       .  S
C3760      C3761   1.414       .  A
C3760      H3765   1.083       .  S
C3761      C3762   1.430       .  A
C3762      N3763   1.425       .  S
N3763      O3767   1.262       .  A
N3763      O3768   1.262   1_554  A
N3766      O3770   1.260       .  A
N3766      O3769   1.262       .  A
C3771      C3772   1.397   1_556  A
C3771      C3776   1.393       .  A
C3771      H3778   1.084       .  S
C3772      C3773   1.426       .  A
C3773      C3774   1.390       .  A
C3773      N3780   1.428       .  S
C3774      C3775   1.393       .  A
C3774      H3779   1.085       .  S
C3775      C3776   1.417   1_554  A
C3776      N3777   1.428       .  S
N3777      O3781   1.262       .  A
N3777      O3782   1.261       .  A
N3780      O3784   1.261       .  A
N3780      O3783   1.260       .  A
C3785      C3786   1.410       .  A
C3785      C3790   1.399       .  A
C3785      H3792   1.084       .  S
C3786      C3787   1.406       .  A
C3787      C3788   1.389       .  A
C3787      N3794   1.426       .  S
C3788      C3789   1.405       .  A
C3788      H3793   1.084       .  S
C3789      C3790   1.410       .  A
C3790      N3791   1.428       .  S
N3791      O3795   1.261       .  A
N3791      O3796   1.261       .  A
N3794      O3798   1.262       .  A
N3794      O3797   1.262       .  A
C3799      C3800   1.403   1_556  A
C3799      C3804   1.402       .  A
C3799      H3806   1.085       .  S
C3800      C3801   1.414       .  A
C3801      C3802   1.397       .  A
C3801      N3808   1.427       .  S
C3802      C3803   1.397   1_554  A
C3802      H3807   1.085       .  S
C3803      C3804   1.413       .  A
C3804      N3805   1.428       .  S
N3805      O3809   1.261       .  A
N3805      O3810   1.262       .  A
N3808      O3812   1.261       .  A
N3808      O3811   1.262       .  A
C3813      C3814   1.399       .  A
C3813      C3818   1.399       .  A
C3813      H3820   1.084       .  S
C3814      C3815   1.414       .  A
C3815      C3816   1.392       .  A
C3815      N3822   1.427       .  S
C3816      C3817   1.400       .  A
C3816      H3821   1.084       .  S
C3817      C3818   1.417       .  A
C3818      N3819   1.427       .  S
N3819      O3823   1.260       .  A
N3819      O3824   1.262       .  A
N3822      O3826   1.262       .  A
N3822      O3825   1.262       .  A
C3827      C3828   1.397       .  A
C3827      C3832   1.400       .  A
C3827      H3834   1.084       .  S
C3828      C3829   1.412       .  A
C3829      C3830   1.400       .  A
C3829      N3836   1.425       .  S
C3830      C3831   1.401       .  A
C3830      H3835   1.084       .  S
C3831      C3832   1.420       .  A
C3832      N3833   1.427   1_554  S
N3833      O3837   1.262       .  A
N3833      O3838   1.262       .  A
N3836      O3840   1.260       .  A
N3836      O3839   1.262       .  A
C3841      C3842   1.401       .  A
C3841      C3846   1.403       .  A
C3841      H3848   1.084       .  S
C3842      C3843   1.415       .  A
C3843      C3844   1.395       .  A
C3843      N3850   1.425       .  S
C3844      C3845   1.396       .  A
C3844      H3849   1.084       .  S
C3845      C3846   1.417       .  A
C3846      N3847   1.425       .  S
N3847      O3851   1.261       .  A
N3847      O3852   1.262       .  A
N3850      O3854   1.260       .  A
N3850      O3853   1.261       .  A
C3855      C3856   1.401       .  A
C3855      C3860   1.395       .  A
C3855      H3862   1.086       .  S
C3856      C3857   1.411       .  A
C3857      C3858   1.404       .  A
C3857      N3864   1.424       .  S
C3858      C3859   1.401       .  A
C3858      H3863   1.083       .  S
C3859      C3860   1.416       .  A
C3860      N3861   1.429       .  S
N3861      O3865   1.261       .  A
N3861      O3866   1.261       .  A
N3864      O3868   1.262       .  A
N3864      O3867   1.260       .  A
C3869      C3870   1.401       .  A
C3869      C3874   1.395       .  A
C3869      H3876   1.084       .  S
C3870      C3871   1.416       .  A
C3871      C3872   1.391       .  A
C3871      N3878   1.429       .  S
C3872      C3873   1.397       .  A
C3872      H3877   1.085       .  S
C3873      C3874   1.412       .  A
C3874      N3875   1.426       .  S
N3875      O3879   1.260       .  A
N3875      O3880   1.261       .  A
N3878      O3882   1.261       .  A
N3878      O3881   1.262       .  A
C3883      C3884   1.403       .  A
C3883      C3888   1.397       .  A
C3883      H3890   1.085       .  S
C3884      C3885   1.407       .  A
C3885      C3886   1.403       .  A
C3885      N3892   1.425       .  S
C3886      C3887   1.410       .  A
C3886      H3891   1.084       .  S
C3887      C3888   1.411       .  A
C3888      N3889   1.425       .  S
N3889      O3893   1.260       .  A
N3889      O3894   1.262       .  A
N3892      O3896   1.262       .  A
N3892      O3895   1.262       .  A
C3897      C3898   1.398       .  A
C3897      C3902   1.402       .  A
C3897      H3904   1.084       .  S
C3898      C3899   1.411       .  A
C3899      C3900   1.396       .  A
C3899      N3906   1.426       .  S
C3900      C3901   1.398       .  A
C3900      H3905   1.085       .  S
C3901      C3902   1.416       .  A
C3902      N3903   1.426       .  S
N3903      O3907   1.262       .  A
N3903      O3908   1.262       .  A
N3906      O3910   1.261       .  A
N3906      O3909   1.261       .  A
C3911      C3912   1.410       .  A
C3911      C3916   1.411       .  A
C3911      H3918   1.084       .  S
C3912      C3913   1.413       .  A
C3913      C3914   1.397       .  A
C3913      N3920   1.425       .  S
C3914      C3915   1.397       .  A
C3914      H3919   1.084       .  S
C3915      C3916   1.402       .  A
C3916      N3917   1.421       .  S
N3917      O3921   1.263       .  A
N3917      O3922   1.262       .  A
N3920      O3924   1.262       .  A
N3920      O3923   1.262       .  A
C3925      C3926   1.411   1_655  A
C3925      C3930   1.410       .  A
C3925      H3932   1.083       .  S
C3926      C3927   1.412       .  A
C3927      C3928   1.396       .  A
C3927      N3934   1.419       .  S
C3928      C3929   1.402   1_455  A
C3928      H3933   1.085       .  S
C3929      C3930   1.412       .  A
C3930      N3931   1.424       .  S
N3931      O3935   1.262       .  A
N3931      O3936   1.261       .  A
N3934      O3938   1.262       .  A
N3934      O3937   1.262       .  A
C3939      C3940   1.402       .  A
C3939      C3944   1.404       .  A
C3939      H3946   1.085       .  S
C3940      C3941   1.416       .  A
C3941      C3942   1.407       .  A
C3941      N3948   1.426       .  S
C3942      C3943   1.408       .  A
C3942      H3947   1.084       .  S
C3943      C3944   1.415       .  A
C3944      N3945   1.423       .  S
N3945      O3949   1.262       .  A
N3945      O3950   1.259       .  A
N3948      O3952   1.262       .  A
N3948      O3951   1.262       .  A
C3953      C3954   1.405   1_655  A
C3953      C3958   1.402       .  A
C3953      H3960   1.085       .  S
C3954      C3955   1.424       .  A
C3955      C3956   1.422       .  A
C3955      N3962   1.425       .  S
C3956      C3957   1.406       .  A
C3956      H3961   1.083       .  S
C3957      C3958   1.414   1_455  A
C3958      N3959   1.426       .  S
N3959      O3963   1.262       .  A
N3959      O3964   1.261       .  A
N3962      O3966   1.261       .  A
N3962      O3965   1.262       .  A
C3967      C3968   1.399       .  A
C3967      C3972   1.392       .  A
C3967      H3974   1.085       .  S
C3968      C3969   1.417       .  A
C3969      C3970   1.397       .  A
C3969      N3976   1.426       .  S
C3970      C3971   1.400       .  A
C3970      H3975   1.084       .  S
C3971      C3972   1.413       .  A
C3972      N3973   1.426       .  S
N3973      O3977   1.262       .  A
N3973      O3978   1.262       .  A
N3976      O3980   1.261       .  A
N3976      O3979   1.262       .  A
C3981      C3982   1.403       .  A
C3981      C3986   1.406       .  A
C3981      H3988   1.082       .  S
C3982      C3983   1.423   1_455  A
C3983      C3984   1.406       .  A
C3983      N3990   1.427       .  S
C3984      C3985   1.402   1_655  A
C3984      H3989   1.084       .  S
C3985      C3986   1.414       .  A
C3986      N3987   1.423       .  S
N3987      O3991   1.262       .  A
N3987      O3992   1.261       .  A
N3990      O3994   1.262       .  A
N3990      O3993   1.262       .  A
C3995      C3996   1.406       .  A
C3995      C4000   1.389       .  A
C3995      H4002   1.084       .  S
C3996      C3997   1.412       .  A
C3997      C3998   1.407       .  A
C3997      N4004   1.424       .  S
C3998      C3999   1.407       .  A
C3998      H4003   1.084       .  S
C3999      C4000   1.409       .  A
C4000      N4001   1.429       .  S
N4001      O4005   1.262       .  A
N4001      O4006   1.262       .  A
N4004      O4008   1.261       .  A
N4004      O4007   1.262       .  A
C4009      C4010   1.405       .  A
C4009      C4014   1.411       .  A
C4009      H4016   1.084       .  S
C4010      C4011   1.409   1_455  A
C4011      C4012   1.395       .  A
C4011      N4018   1.427       .  S
C4012      C4013   1.407   1_655  A
C4012      H4017   1.084       .  S
C4013      C4014   1.419       .  A
C4014      N4015   1.425       .  S
N4015      O4019   1.262       .  A
N4015      O4020   1.262       .  A
N4018      O4022   1.262       .  A
N4018      O4021   1.262       .  A
C4023      C4024   1.408       .  A
C4023      C4028   1.393       .  A
C4023      H4030   1.085       .  S
C4024      C4025   1.409       .  A
C4025      C4026   1.398       .  A
C4025      N4032   1.426       .  S
C4026      C4027   1.410       .  A
C4026      H4031   1.084       .  S
C4027      C4028   1.410       .  A
C4028      N4029   1.427       .  S
N4029      O4033   1.262       .  A
N4029      O4034   1.262       .  A
N4032      O4036   1.261       .  A
N4032      O4035   1.261       .  A
C4037      C4038   1.398       .  A
C4037      C4042   1.391       .  A
C4037      H4044   1.084       .  S
C4038      C4039   1.407       .  A
C4039      C4040   1.392       .  A
C4039      N4046   1.435       .  S
C4040      C4041   1.410       .  A
C4040      H4045   1.084       .  S
C4041      C4042   1.416       .  A
C4042      N4043   1.427       .  S
N4043      O4047   1.262       .  A
N4043      O4048   1.262       .  A
N4046      O4050   1.260       .  A
N4046      O4049   1.262       .  A
C4051      C4052   1.403       .  A
C4051      C4056   1.413       .  A
C4051      H4058   1.085       .  S
C4052      C4053   1.414       .  A
C4053      C4054   1.407       .  A
C4053      N4060   1.426       .  S
C4054      C4055   1.410       .  A
C4054      H4059   1.083       .  S
C4055      C4056   1.423       .  A
C4056      N4057   1.426       .  S
N4057      O4061   1.262       .  A
N4057      O4062   1.262       .  A
N4060      O4064   1.262       .  A
N4060      O4063   1.262       .  A
C4065      C4066   1.412       .  A
C4065      C4070   1.414       .  A
C4065      H4072   1.083       .  S
C4066      C4067   1.426       .  A
C4067      C4068   1.393       .  A
C4067      N4074   1.427       .  S
C4068      C4069   1.388       .  A
C4068      H4073   1.084       .  S
C4069      C4070   1.409       .  A
C4070      N4071   1.428       .  S
N4071      O4075   1.261       .  A
N4071      O4076   1.262       .  A
N4074      O4078   1.262       .  A
N4074      O4077   1.262       .  A
C4079      C4080   1.405       .  A
C4079      C4084   1.403       .  A
C4079      H4086   1.085       .  S
C4080      C4081   1.413       .  A
C4081      C4082   1.400       .  A
C4081      N4088   1.426       .  S
C4082      C4083   1.400       .  A
C4082      H4087   1.084       .  S
C4083      C4084   1.410       .  A
C4084      N4085   1.426       .  S
N4085      O4089   1.262       .  A
N4085      O4090   1.261       .  A
N4088      O4092   1.262       .  A
N4088      O4091   1.262       .  A
C4093      C4094   1.412       .  A
C4093      C4098   1.399       .  A
C4093      H4100   1.084       .  S
C4094      C4095   1.419       .  A
C4095      C4096   1.397       .  A
C4095      N4102   1.424       .  S
C4096      C4097   1.389       .  A
C4096      H4101   1.082       .  S
C4097      C4098   1.400       .  A
C4098      N4099   1.422       .  S
N4099      O4103   1.260       .  A
N4099      O4104   1.262       .  A
N4102      O4106   1.261       .  A
N4102      O4105   1.262       .  A
C4107      C4108   1.411       .  A
C4107      C4112   1.403       .  A
C4107      H4114   1.084       .  S
C4108      C4109   1.420       .  A
C4109      C4110   1.393       .  A
C4109      N4116   1.426       .  S
C4110      C4111   1.391       .  A
C4110      H4115   1.084       .  S
C4111      C4112   1.408       .  A
C4112      N4113   1.430       .  S
N4113      O4117   1.261       .  A
N4113      O4118   1.263       .  A
N4116      O4120   1.261       .  A
N4116      O4119   1.261       .  A
C4121      C4122   1.398       .  A
C4121      C4126   1.407       .  A
C4121      H4128   1.084       .  S
C4122      C4123   1.411       .  A
C4123      C4124   1.392       .  A
C4123      N4130   1.426       .  S
C4124      C4125   1.400       .  A
C4124      H4129   1.085       .  S
C4125      C4126   1.416       .  A
C4126      N4127   1.422       .  S
N4127      O4131   1.260       .  A
N4127      O4132   1.262       .  A
N4130      O4134   1.261       .  A
N4130      O4133   1.261       .  A
C4135      C4136   1.396       .  A
C4135      C4140   1.398       .  A
C4135      H4142   1.085       .  S
C4136      C4137   1.414       .  A
C4137      C4138   1.397       .  A
C4137      N4144   1.427       .  S
C4138      C4139   1.401       .  A
C4138      H4143   1.084       .  S
C4139      C4140   1.422       .  A
C4140      N4141   1.426       .  S
N4141      O4145   1.262       .  A
N4141      O4146   1.262       .  A
N4144      O4148   1.262       .  A
N4144      O4147   1.262       .  A
C4149      C4150   1.408       .  A
C4149      C4154   1.401       .  A
C4149      H4156   1.084       .  S
C4150      C4151   1.416       .  A
C4151      C4152   1.397       .  A
C4151      N4158   1.427       .  S
C4152      C4153   1.403       .  A
C4152      H4157   1.085       .  S
C4153      C4154   1.408       .  A
C4154      N4155   1.425       .  S
N4155      O4159   1.262       .  A
N4155      O4160   1.262       .  A
N4158      O4162   1.262       .  A
N4158      O4161   1.262       .  A
C4163      C4164   1.398       .  A
C4163      C4168   1.400       .  A
C4163      H4170   1.084       .  S
C4164      C4165   1.415       .  A
C4165      C4166   1.398       .  A
C4165      N4172   1.426       .  S
C4166      C4167   1.396       .  A
C4166      H4171   1.084       .  S
C4167      C4168   1.416       .  A
C4168      N4169   1.427       .  S
N4169      O4173   1.262       .  A
N4169      O4174   1.262       .  A
N4172      O4176   1.262       .  A
N4172      O4175   1.262       .  A
C4177      C4178   1.401       .  A
C4177      C4182   1.404       .  A
C4177      H4184   1.085       .  S
C4178      C4179   1.419       .  A
C4179      C4180   1.409       .  A
C4179      N4186   1.425       .  S
C4180      C4181   1.399       .  A
C4180      H4185   1.084       .  S
C4181      C4182   1.416       .  A
C4182      N4183   1.427       .  S
N4183      O4187   1.261       .  A
N4183      O4188   1.262       .  A
N4186      O4190   1.261       .  A
N4186      O4189   1.261       .  A
C4191      C4192   1.408       .  A
C4191      C4196   1.405       .  A
C4191      H4198   1.084       .  S
C4192      C4193   1.414       .  A
C4193      C4194   1.398       .  A
C4193      N4200   1.422       .  S
C4194      C4195   1.402       .  A
C4194      H4199   1.084       .  S
C4195      C4196   1.415       .  A
C4196      N4197   1.426       .  S
N4197      O4201   1.262       .  A
N4197      O4202   1.262       .  A
N4200      O4204   1.261       .  A
N4200      O4203   1.262   1_565  A
C4205      C4206   1.406   1_545  A
C4205      C4210   1.414       .  A
C4205      H4212   1.084       .  S
C4206      C4207   1.424       .  A
C4207      C4208   1.399       .  A
C4207      N4214   1.428       .  S
C4208      C4209   1.397   1_565  A
C4208      H4213   1.085       .  S
C4209      C4210   1.417       .  A
C4210      N4211   1.425       .  S
N4211      O4215   1.261       .  A
N4211      O4216   1.262       .  A
N4214      O4218   1.262       .  A
N4214      O4217   1.262       .  A
C4219      C4220   1.400       .  A
C4219      C4224   1.391       .  A
C4219      H4226   1.083       .  S
C4220      C4221   1.415       .  A
C4221      C4222   1.414       .  A
C4221      N4228   1.432   1_565  S
C4222      C4223   1.405       .  A
C4222      H4227   1.080   1_565  S
C4223      C4224   1.407       .  A
C4224      N4225   1.426       .  S
N4225      O4229   1.260       .  A
N4225      O4230   1.259       .  A
N4228      O4232   1.263       .  A
N4228      O4231   1.262       .  A
C4233      C4234   1.394       .  A
C4233      C4238   1.397       .  A
C4233      H4240   1.085       .  S
C4234      C4235   1.404       .  A
C4235      C4236   1.416       .  A
C4235      N4242   1.428       .  S
C4236      C4237   1.415       .  A
C4236      H4241   1.083       .  S
C4237      C4238   1.419       .  A
C4238      N4239   1.426       .  S
N4239      O4243   1.261       .  A
N4239      O4244   1.262       .  A
N4242      O4246   1.262       .  A
N4242      O4245   1.262       .  A
C4247      C4248   1.403       .  A
C4247      C4252   1.406       .  A
C4247      H4254   1.084       .  S
C4248      C4249   1.402       .  A
C4249      C4250   1.405       .  A
C4249      N4256   1.421       .  S
C4250      C4251   1.411       .  A
C4250      H4255   1.084       .  S
C4251      C4252   1.417       .  A
C4252      N4253   1.425       .  S
N4253      O4257   1.262       .  A
N4253      O4258   1.262       .  A
N4256      O4260   1.262   1_565  A
N4256      O4259   1.262       .  A
C4261      C4262   1.407       .  A
C4261      C4266   1.404       .  A
C4261      H4268   1.082       .  S
C4262      C4263   1.412   1_565  A
C4263      C4264   1.390       .  A
C4263      N4270   1.427       .  S
C4264      C4265   1.402   1_545  A
C4264      H4269   1.085       .  S
C4265      C4266   1.411       .  A
C4266      N4267   1.425       .  S
N4267      O4271   1.262       .  A
N4267      O4272   1.261   1_565  A
N4270      O4274   1.262       .  A
N4270      O4273   1.261   1_545  A
C4275      C4276   1.397       .  A
C4275      C4280   1.393       .  A
C4275      H4282   1.085       .  S
C4276      C4277   1.409       .  A
C4277      C4278   1.388       .  A
C4277      N4284   1.428       .  S
C4278      C4279   1.403       .  A
C4278      H4283   1.084       .  S
C4279      C4280   1.413       .  A
C4280      N4281   1.424       .  S
N4281      O4285   1.261       .  A
N4281      O4286   1.260       .  A
N4284      O4288   1.262       .  A
N4284      O4287   1.262       .  A
C4289      C4290   1.397       .  A
C4289      C4294   1.395       .  A
C4289      H4296   1.084       .  S
C4290      C4291   1.414       .  A
C4291      C4292   1.394       .  A
C4291      N4298   1.426       .  S
C4292      C4293   1.397       .  A
C4292      H4297   1.084       .  S
C4293      C4294   1.417       .  A
C4294      N4295   1.427       .  S
N4295      O4299   1.262       .  A
N4295      O4300   1.262       .  A
N4298      O4302   1.261       .  A
N4298      O4301   1.262       .  A
C4303      C4304   1.410       .  A
C4303      C4308   1.417       .  A
C4303      H4310   1.076       .  S
C4304      C4305   1.430       .  A
C4305      C4306   1.400       .  A
C4305      N4312   1.428       .  S
C4306      C4307   1.391       .  A
C4306      H4311   1.084       .  S
C4307      C4308   1.407       .  A
C4308      N4309   1.427       .  S
N4309      O4313   1.261       .  A
N4309      O4314   1.263       .  A
N4312      O4316   1.262       .  A
N4312      O4315   1.262       .  A
C4317      C4318   1.399       .  A
C4317      C4322   1.401       .  A
C4317      H4324   1.084       .  S
C4318      C4319   1.408       .  A
C4319      C4320   1.402       .  A
C4319      N4326   1.412       .  S
C4320      C4321   1.400       .  A
C4320      H4325   1.085       .  S
C4321      C4322   1.417       .  A
C4322      N4323   1.424       .  S
N4323      O4327   1.262       .  A
N4323      O4328   1.262       .  A
N4326      O4330   1.263       .  A
N4326      O4329   1.258       .  A
C4331      C4332   1.400       .  A
C4331      C4336   1.393       .  A
C4331      H4338   1.084       .  S
C4332      C4333   1.418       .  A
C4333      C4334   1.408       .  A
C4333      N4340   1.426       .  S
C4334      C4335   1.401       .  A
C4334      H4339   1.084       .  S
C4335      C4336   1.411       .  A
C4336      N4337   1.428       .  S
N4337      O4341   1.262       .  A
N4337      O4342   1.262       .  A
N4340      O4344   1.262       .  A
N4340      O4343   1.261       .  A
C4345      C4346   1.413       .  A
C4345      C4350   1.396       .  A
C4345      H4352   1.072       .  S
C4346      C4347   1.406       .  A
C4347      C4348   1.402       .  A
C4347      N4354   1.436       .  S
C4348      C4349   1.402       .  A
C4348      H4353   1.075       .  S
C4349      C4350   1.392       .  A
C4350      N4351   1.421       .  S
N4351      O4355   1.262       .  A
N4351      O4356   1.261       .  A
N4354      O4358   1.263       .  A
N4354      O4357   1.262       .  A
C4359      C4360   1.402       .  A
C4359      C4364   1.384       .  A
C4359      H4366   1.085       .  S
C4360      C4361   1.409       .  A
C4361      C4362   1.389       .  A
C4361      N4368   1.426       .  S
C4362      C4363   1.402       .  A
C4362      H4367   1.084       .  S
C4363      C4364   1.408       .  A
C4364      N4365   1.428       .  S
N4365      O4369   1.261       .  A
N4365      O4370   1.262       .  A
N4368      O4372   1.260       .  A
N4368      O4371   1.262       .  A
C4373      C4374   1.399       .  A
C4373      C4378   1.394       .  A
C4373      H4380   1.081       .  S
C4374      C4375   1.411       .  A
C4375      C4376   1.393       .  A
C4375      N4382   1.425       .  S
C4376      C4377   1.399       .  A
C4376      H4381   1.085       .  S
C4377      C4378   1.411       .  A
C4378      N4379   1.426       .  S
N4379      O4383   1.262       .  A
N4379      O4384   1.262       .  A
N4382      O4386   1.262       .  A
N4382      O4385   1.262       .  A
C4387      C4388   1.405       .  A
C4387      C4392   1.404       .  A
C4387      H4394   1.084       .  S
C4388      C4389   1.410       .  A
C4389      C4390   1.395       .  A
C4389      N4396   1.408       .  S
C4390      C4391   1.388       .  A
C4390      H4395   1.085       .  S
C4391      C4392   1.415       .  A
C4392      N4393   1.425       .  S
N4393      O4397   1.261       .  A
N4393      O4398   1.262       .  A
N4396      O4400   1.258       .  A
N4396      O4399   1.262       .  A
C4401      C4402   1.399       .  A
C4401      C4406   1.414       .  A
C4401      H4408   1.083       .  S
C4402      C4403   1.411       .  A
C4403      C4404   1.400       .  A
C4403      N4410   1.429       .  S
C4404      C4405   1.409       .  A
C4404      H4409   1.084       .  S
C4405      C4406   1.423       .  A
C4406      N4407   1.425       .  S
N4407      O4411   1.262       .  A
N4407      O4412   1.262       .  A
N4410      O4414   1.260       .  A
N4410      O4413   1.261       .  A
C4415      C4416   1.405       .  A
C4415      C4420   1.399       .  A
C4415      H4422   1.085       .  S
C4416      C4417   1.412       .  A
C4417      C4418   1.408       .  A
C4417      N4424   1.425       .  S
C4418      C4419   1.406       .  A
C4418      H4423   1.084       .  S
C4419      C4420   1.410       .  A
C4420      N4421   1.427       .  S
N4421      O4425   1.262       .  A
N4421      O4426   1.262       .  A
N4424      O4428   1.262       .  A
N4424      O4427   1.262       .  A
C4429      C4430   1.396       .  A
C4429      C4434   1.407       .  A
C4429      H4436   1.084   1_545  S
C4430      C4431   1.406       .  A
C4431      C4432   1.416       .  A
C4431      N4438   1.428       .  S
C4432      C4433   1.413       .  A
C4432      H4437   1.081       .  S
C4433      C4434   1.418       .  A
C4434      N4435   1.424   1_545  S
N4435      O4439   1.259       .  A
N4435      O4440   1.262       .  A
N4438      O4442   1.262       .  A
N4438      O4441   1.262       .  A
C4443      C4444   1.411       .  A
C4443      C4448   1.414       .  A
C4443      H4450   1.083       .  S
C4444      C4445   1.419       .  A
C4445      C4446   1.404       .  A
C4445      N4452   1.424       .  S
C4446      C4447   1.400       .  A
C4446      H4451   1.083       .  S
C4447      C4448   1.414       .  A
C4448      N4449   1.425       .  S
N4449      O4453   1.262       .  A
N4449      O4454   1.262       .  A
N4452      O4456   1.260       .  A
N4452      O4455   1.262       .  A
C4457      C4458   1.401       .  A
C4457      C4462   1.400       .  A
C4457      H4464   1.084       .  S
C4458      C4459   1.412       .  A
C4459      C4460   1.408       .  A
C4459      N4466   1.425       .  S
C4460      C4461   1.409       .  A
C4460      H4465   1.084       .  S
C4461      C4462   1.415       .  A
C4462      N4463   1.426       .  S
N4463      O4467   1.260       .  A
N4463      O4468   1.262       .  A
N4466      O4470   1.262   1_545  A
N4466      O4469   1.262       .  A
C4471      C4472   1.398       .  A
C4471      C4476   1.392       .  A
C4471      H4478   1.084       .  S
C4472      C4473   1.427   1_545  A
C4473      C4474   1.396       .  A
C4473      N4480   1.428       .  S
C4474      C4475   1.396       .  A
C4474      H4479   1.084       .  S
C4475      C4476   1.414   1_565  A
C4476      N4477   1.427       .  S
N4477      O4481   1.261       .  A
N4477      O4482   1.262   1_545  A
N4480      O4484   1.262       .  A
N4480      O4483   1.262   1_565  A
C4485      C4486   1.397   1_565  A
C4485      C4490   1.401       .  A
C4485      H4492   1.084       .  S
C4486      C4487   1.412       .  A
C4487      C4488   1.407       .  A
C4487      N4494   1.426       .  S
C4488      C4489   1.404       .  A
C4488      H4493   1.085       .  S
C4489      C4490   1.414   1_545  A
C4490      N4491   1.426       .  S
N4491      O4495   1.262       .  A
N4491      O4496   1.262       .  A
N4494      O4498   1.262       .  A
N4494      O4497   1.262       .  A
C4499      C4500   1.405       .  A
C4499      C4504   1.401       .  A
C4499      H4506   1.084       .  S
C4500      C4501   1.420       .  A
C4501      C4502   1.404       .  A
C4501      N4508   1.427       .  S
C4502      C4503   1.399       .  A
C4502      H4507   1.084       .  S
C4503      C4504   1.409       .  A
C4504      N4505   1.425       .  S
N4505      O4509   1.262       .  A
N4505      O4510   1.262       .  A
N4508      O4512   1.261       .  A
N4508      O4511   1.262       .  A
C4513      C4514   1.397       .  A
C4513      C4518   1.407       .  A
C4513      H4520   1.084       .  S
C4514      C4515   1.413       .  A
C4515      C4516   1.401       .  A
C4515      N4522   1.426       .  S
C4516      C4517   1.404       .  A
C4516      H4521   1.085       .  S
C4517      C4518   1.420       .  A
C4518      N4519   1.425       .  S
N4519      O4523   1.262       .  A
N4519      O4524   1.262       .  A
N4522      O4526   1.261       .  A
N4522      O4525   1.258       .  A
C4527      C4528   1.418       .  A
C4527      C4532   1.401       .  A
C4527      H4534   1.084       .  S
C4528      C4529   1.412       .  A
C4529      C4530   1.384       .  A
C4529      N4536   1.427       .  S
C4530      C4531   1.398       .  A
C4530      H4535   1.083       .  S
C4531      C4532   1.395       .  A
C4532      N4533   1.424       .  S
N4533      O4537   1.262       .  A
N4533      O4538   1.261       .  A
N4536      O4540   1.262       .  A
N4536      O4539   1.262       .  A
C4541      C4542   1.405       .  A
C4541      C4546   1.392       .  A
C4541      H4548   1.084       .  S
C4542      C4543   1.408       .  A
C4543      C4544   1.390       .  A
C4543      N4550   1.426       .  S
C4544      C4545   1.402       .  A
C4544      H4549   1.084       .  S
C4545      C4546   1.411       .  A
C4546      N4547   1.427       .  S
N4547      O4551   1.262       .  A
N4547      O4552   1.262       .  A
N4550      O4554   1.262       .  A
N4550      O4553   1.262       .  A
C4555      C4556   1.406       .  A
C4555      C4560   1.416       .  A
C4555      H4562   1.084       .  S
C4556      C4557   1.417       .  A
C4557      C4558   1.399       .  A
C4557      N4564   1.428       .  S
C4558      C4559   1.398       .  A
C4558      H4563   1.085       .  S
C4559      C4560   1.418       .  A
C4560      N4561   1.425       .  S
N4561      O4565   1.260       .  A
N4561      O4566   1.262       .  A
N4564      O4568   1.262       .  A
N4564      O4567   1.262       .  A
C4569      C4570   1.404       .  A
C4569      C4574   1.403       .  A
C4569      H4576   1.085       .  S
C4570      C4571   1.410       .  A
C4571      C4572   1.402       .  A
C4571      N4578   1.427       .  S
C4572      C4573   1.408       .  A
C4572      H4577   1.085       .  S
C4573      C4574   1.412       .  A
C4574      N4575   1.425       .  S
N4575      O4579   1.262       .  A
N4575      O4580   1.261       .  A
N4578      O4582   1.262       .  A
N4578      O4581   1.262       .  A
C4583      C4584   1.400       .  A
C4583      C4588   1.403       .  A
C4583      H4590   1.084       .  S
C4584      C4585   1.407       .  A
C4585      C4586   1.413       .  A
C4585      N4592   1.422       .  S
C4586      C4587   1.410       .  A
C4586      H4591   1.084       .  S
C4587      C4588   1.416       .  A
C4588      N4589   1.425       .  S
N4589      O4593   1.262       .  A
N4589      O4594   1.262       .  A
N4592      O4596   1.263       .  A
N4592      O4595   1.261       .  A
C4597      C4598   1.399       .  A
C4597      C4602   1.401       .  A
C4597      H4604   1.084       .  S
C4598      C4599   1.406       .  A
C4599      C4600   1.391       .  A
C4599      N4606   1.424       .  S
C4600      C4601   1.402       .  A
C4600      H4605   1.082       .  S
C4601      C4602   1.415       .  A
C4602      N4603   1.426       .  S
N4603      O4607   1.259       .  A
N4603      O4608   1.262       .  A
N4606      O4610   1.262       .  A
N4606      O4609   1.262       .  A
C4611      C4612   1.397       .  A
C4611      C4616   1.404       .  A
C4611      H4618   1.084       .  S
C4612      C4613   1.413       .  A
C4613      C4614   1.391       .  A
C4613      N4620   1.427       .  S
C4614      C4615   1.399       .  A
C4614      H4619   1.086       .  S
C4615      C4616   1.417       .  A
C4616      N4617   1.423       .  S
N4617      O4621   1.262       .  A
N4617      O4622   1.261       .  A
N4620      O4624   1.262       .  A
N4620      O4623   1.262       .  A
C4625      C4626   1.406       .  A
C4625      C4630   1.399       .  A
C4625      H4632   1.084       .  S
C4626      C4627   1.415       .  A
C4627      C4628   1.386       .  A
C4627      N4634   1.423       .  S
C4628      C4629   1.394       .  A
C4628      H4633   1.081       .  S
C4629      C4630   1.412       .  A
C4630      N4631   1.425       .  S
N4631      O4635   1.262       .  A
N4631      O4636   1.261       .  A
N4634      O4638   1.262       .  A
N4634      O4637   1.260       .  A
C4639      C4640   1.405       .  A
C4639      C4644   1.399       .  A
C4639      H4646   1.084       .  S
C4640      C4641   1.409       .  A
C4641      C4642   1.394       .  A
C4641      N4648   1.426       .  S
C4642      C4643   1.403       .  A
C4642      H4647   1.085       .  S
C4643      C4644   1.409       .  A
C4644      N4645   1.425       .  S
N4645      O4649   1.262       .  A
N4645      O4650   1.262       .  A
N4648      O4652   1.262       .  A
N4648      O4651   1.261       .  A
C4653      C4654   1.406       .  A
C4653      C4658   1.400       .  A
C4653      H4660   1.083       .  S
C4654      C4655   1.423       .  A
C4655      C4656   1.408       .  A
C4655      N4662   1.427       .  S
C4656      C4657   1.402       .  A
C4656      H4661   1.085       .  S
C4657      C4658   1.410       .  A
C4658      N4659   1.425       .  S
N4659      O4663   1.262       .  A
N4659      O4664   1.262       .  A
N4662      O4666   1.261       .  A
N4662      O4665   1.260       .  A
C4667      C4668   1.407       .  A
C4667      C4672   1.408       .  A
C4667      H4674   1.084       .  S
C4668      C4669   1.414       .  A
C4669      C4670   1.394       .  A
C4669      N4676   1.426       .  S
C4670      C4671   1.393       .  A
C4670      H4675   1.085       .  S
C4671      C4672   1.405       .  A
C4672      N4673   1.428       .  S
N4673      O4677   1.262       .  A
N4673      O4678   1.262       .  A
N4676      O4680   1.262       .  A
N4676      O4679   1.262       .  A
C4681      C4682   1.395       .  A
C4681      C4686   1.394       .  A
C4681      H4688   1.085       .  S
C4682      C4683   1.424       .  A
C4683      C4684   1.418       .  A
C4683      N4690   1.425       .  S
C4684      C4685   1.404       .  A
C4684      H4689   1.084       .  S
C4685      C4686   1.425       .  A
C4686      N4687   1.427       .  S
N4687      O4691   1.262       .  A
N4687      O4692   1.262       .  A
N4690      O4694   1.262       .  A
N4690      O4693   1.262       .  A
C4695      C4696   1.409       .  A
C4695      C4700   1.399       .  A
C4695      H4702   1.083   1_556  S
C4696      C4697   1.414       .  A
C4697      C4698   1.402       .  A
C4697      N4704   1.422       .  S
C4698      C4699   1.403       .  A
C4698      H4703   1.084       .  S
C4699      C4700   1.411       .  A
C4700      N4701   1.427   1_556  S
N4701      O4705   1.262       .  A
N4701      O4706   1.262       .  A
N4704      O4708   1.258       .  A
N4704      O4707   1.262       .  A
C4709      C4710   1.401   1_554  A
C4709      C4714   1.407       .  A
C4709      H4716   1.081       .  S
C4710      C4711   1.411       .  A
C4711      C4712   1.405       .  A
C4711      N4718   1.423       .  S
C4712      C4713   1.402   1_556  A
C4712      H4717   1.084       .  S
C4713      C4714   1.417       .  A
C4714      N4715   1.426       .  S
N4715      O4719   1.262       .  A
N4715      O4720   1.262       .  A
N4718      O4722   1.261       .  A
N4718      O4721   1.258       .  A
C4723      C4724   1.401       .  A
C4723      C4728   1.393       .  A
C4723      H4730   1.082       .  S
C4724      C4725   1.412       .  A
C4725      C4726   1.398       .  A
C4725      N4732   1.424       .  S
C4726      C4727   1.398       .  A
C4726      H4731   1.080       .  S
C4727      C4728   1.408       .  A
C4728      N4729   1.421       .  S
N4729      O4733   1.260       .  A
N4729      O4734   1.261       .  A
N4732      O4736   1.261       .  A
N4732      O4735   1.261       .  A
C4737      C4738   1.406       .  A
C4737      C4742   1.400       .  A
C4737      H4744   1.085       .  S
C4738      C4739   1.415       .  A
C4739      C4740   1.405       .  A
C4739      N4746   1.423       .  S
C4740      C4741   1.398       .  A
C4740      H4745   1.084       .  S
C4741      C4742   1.410       .  A
C4742      N4743   1.426       .  S
N4743      O4747   1.262       .  A
N4743      O4748   1.262       .  A
N4746      O4750   1.258       .  A
N4746      O4749   1.262       .  A
C4751      C4752   1.399       .  A
C4751      C4756   1.404       .  A
C4751      H4758   1.085       .  S
C4752      C4753   1.413       .  A
C4753      C4754   1.404       .  A
C4753      N4760   1.426       .  S
C4754      C4755   1.400       .  A
C4754      H4759   1.084       .  S
C4755      C4756   1.416       .  A
C4756      N4757   1.426       .  S
N4757      O4761   1.262       .  A
N4757      O4762   1.262       .  A
N4760      O4764   1.262       .  A
N4760      O4763   1.262       .  A
C4765      C4766   1.399       .  A
C4765      C4770   1.404       .  A
C4765      H4772   1.082       .  S
C4766      C4767   1.427       .  A
C4767      C4768   1.409       .  A
C4767      N4774   1.427       .  S
C4768      C4769   1.396       .  A
C4768      H4773   1.084       .  S
C4769      C4770   1.420       .  A
C4770      N4771   1.427       .  S
N4771      O4775   1.262       .  A
N4771      O4776   1.261       .  A
N4774      O4778   1.261       .  A
N4774      O4777   1.262       .  A
C4779      C4780   1.398       .  A
C4779      C4784   1.391       .  A
C4779      H4786   1.085       .  S
C4780      C4781   1.409       .  A
C4781      C4782   1.387       .  A
C4781      N4788   1.418       .  S
C4782      C4783   1.395       .  A
C4782      H4787   1.085       .  S
C4783      C4784   1.414       .  A
C4784      N4785   1.426       .  S
N4785      O4789   1.262       .  A
N4785      O4790   1.262       .  A
N4788      O4792   1.257       .  A
N4788      O4791   1.261       .  A
C4793      C4794   1.401       .  A
C4793      C4798   1.403       .  A
C4793      H4800   1.084       .  S
C4794      C4795   1.414       .  A
C4795      C4796   1.392       .  A
C4795      N4802   1.427       .  S
C4796      C4797   1.398       .  A
C4796      H4801   1.085       .  S
C4797      C4798   1.413       .  A
C4798      N4799   1.425       .  S
N4799      O4803   1.261       .  A
N4799      O4804   1.262       .  A
N4802      O4806   1.261       .  A
N4802      O4805   1.261       .  A
C4807      C4808   1.403       .  A
C4807      C4812   1.409       .  A
C4807      H4814   1.084       .  S
C4808      C4809   1.420       .  A
C4809      C4810   1.410       .  A
C4809      N4816   1.425       .  S
C4810      C4811   1.401       .  A
C4810      H4815   1.084       .  S
C4811      C4812   1.420       .  A
C4812      N4813   1.426       .  S
N4813      O4817   1.262       .  A
N4813      O4818   1.262       .  A
N4816      O4820   1.262       .  A
N4816      O4819   1.260       .  A
C4821      C4822   1.404       .  A
C4821      C4826   1.401       .  A
C4821      H4828   1.084       .  S
C4822      C4823   1.409       .  A
C4823      C4824   1.411       .  A
C4823      N4830   1.428       .  S
C4824      C4825   1.413       .  A
C4824      H4829   1.084       .  S
C4825      C4826   1.416       .  A
C4826      N4827   1.426       .  S
N4827      O4831   1.262       .  A
N4827      O4832   1.262       .  A
N4830      O4834   1.262       .  A
N4830      O4833   1.259       .  A
C4835      C4836   1.399       .  A
C4835      C4840   1.403       .  A
C4835      H4842   1.085       .  S
C4836      C4837   1.415       .  A
C4837      C4838   1.404       .  A
C4837      N4844   1.426       .  S
C4838      C4839   1.400       .  A
C4838      H4843   1.084       .  S
C4839      C4840   1.419       .  A
C4840      N4841   1.427       .  S
N4841      O4845   1.262       .  A
N4841      O4846   1.262       .  A
N4844      O4848   1.261       .  A
N4844      O4847   1.262       .  A
C4849      C4850   1.393       .  A
C4849      C4854   1.395       .  A
C4849      H4856   1.082       .  S
C4850      C4851   1.411       .  A
C4851      C4852   1.394       .  A
C4851      N4858   1.422       .  S
C4852      C4853   1.399       .  A
C4852      H4857   1.085       .  S
C4853      C4854   1.416       .  A
C4854      N4855   1.425       .  S
N4855      O4859   1.262       .  A
N4855      O4860   1.261       .  A
N4858      O4862   1.260       .  A
N4858      O4861   1.261       .  A
C4863      C4864   1.389       .  A
C4863      C4868   1.389       .  A
C4863      H4870   1.086       .  S
C4864      C4865   1.405       .  A
C4865      C4866   1.391       .  A
C4865      N4872   1.425       .  S
C4866      C4867   1.400       .  A
C4866      H4871   1.084       .  S
C4867      C4868   1.416       .  A
C4868      N4869   1.422       .  S
N4869      O4873   1.262       .  A
N4869      O4874   1.259       .  A
N4872      O4876   1.262       .  A
N4872      O4875   1.262       .  A
C4877      C4878   1.404       .  A
C4877      C4882   1.405       .  A
C4877      H4884   1.084       .  S
C4878      C4879   1.423       .  A
C4879      C4880   1.395       .  A
C4879      N4886   1.427       .  S
C4880      C4881   1.389       .  A
C4880      H4885   1.084       .  S
C4881      C4882   1.411       .  A
C4882      N4883   1.432       .  S
N4883      O4887   1.262       .  A
N4883      O4888   1.262       .  A
N4886      O4890   1.261       .  A
N4886      O4889   1.262       .  A
C4891      C4892   1.403       .  A
C4891      C4896   1.421       .  A
C4891      H4898   1.084       .  S
C4892      C4893   1.429       .  A
C4893      C4894   1.401       .  A
C4893      N4900   1.428       .  S
C4894      C4895   1.397       .  A
C4894      H4899   1.084       .  S
C4895      C4896   1.434       .  A
C4896      N4897   1.426       .  S
N4897      O4901   1.262       .  A
N4897      O4902   1.262       .  A
N4900      O4904   1.262       .  A
N4900      O4903   1.262       .  A
C4905      C4906   1.410       .  A
C4905      C4910   1.400       .  A
C4905      H4912   1.081       .  S
C4906      C4907   1.415       .  A
C4907      C4908   1.413       .  A
C4907      N4914   1.425       .  S
C4908      C4909   1.412       .  A
C4908      H4913   1.084       .  S
C4909      C4910   1.411       .  A
C4910      N4911   1.427       .  S
N4911      O4915   1.262       .  A
N4911      O4916   1.262       .  A
N4914      O4918   1.262   1_556  A
N4914      O4917   1.262       .  A
C4919      C4920   1.404       .  A
C4919      C4924   1.409       .  A
C4919      H4926   1.082       .  S
C4920      C4921   1.423       .  A
C4921      C4922   1.406   1_556  A
C4921      N4928   1.427   1_556  S
C4922      C4923   1.402   1_554  A
C4922      H4927   1.084       .  S
C4923      C4924   1.415       .  A
C4924      N4925   1.421       .  S
N4925      O4929   1.257       .  A
N4925      O4930   1.261       .  A
N4928      O4932   1.262       .  A
N4928      O4931   1.262       .  A
C4933      C4934   1.400       .  A
C4933      C4938   1.405       .  A
C4933      H4940   1.084       .  S
C4934      C4935   1.415       .  A
C4935      C4936   1.393       .  A
C4935      N4942   1.428       .  S
C4936      C4937   1.396       .  A
C4936      H4941   1.085       .  S
C4937      C4938   1.415       .  A
C4938      N4939   1.427   1_655  S
N4939      O4943   1.261   1_455  A
N4939      O4944   1.262       .  A
N4942      O4946   1.262       .  A
N4942      O4945   1.262       .  A
C4947      C4948   1.400       .  A
C4947      C4952   1.398       .  A
C4947      H4954   1.084       .  S
C4948      C4949   1.408       .  A
C4949      C4950   1.398       .  A
C4949      N4956   1.425       .  S
C4950      C4951   1.400       .  A
C4950      H4955   1.084       .  S
C4951      C4952   1.406       .  A
C4952      N4953   1.421       .  S
N4953      O4957   1.260       .  A
N4953      O4958   1.262       .  A
N4956      O4960   1.262   1_556  A
N4956      O4959   1.261   1_556  A
C4961      C4962   1.402       .  A
C4961      C4966   1.395       .  A
C4961      H4968   1.085       .  S
C4962      C4963   1.416       .  A
C4963      C4964   1.396       .  A
C4963      N4970   1.426       .  S
C4964      C4965   1.394       .  A
C4964      H4969   1.085       .  S
C4965      C4966   1.408       .  A
C4966      N4967   1.427   1_556  S
N4967      O4971   1.262       .  A
N4967      O4972   1.262       .  A
N4970      O4974   1.262   1_655  A
N4970      O4973   1.262       .  A
C4975      C4976   1.399       .  A
C4975      C4980   1.387       .  A
C4975      H4982   1.085       .  S
C4976      C4977   1.413       .  A
C4977      C4978   1.401       .  A
C4977      N4984   1.425       .  S
C4978      C4979   1.398       .  A
C4978      H4983   1.082       .  S
C4979      C4980   1.412       .  A
C4980      N4981   1.430       .  S
N4981      O4985   1.261       .  A
N4981      O4986   1.262       .  A
N4984      O4988   1.262   1_655  A
N4984      O4987   1.261       .  A
C4989      C4990   1.406       .  A
C4989      C4994   1.416       .  A
C4989      H4996   1.084       .  S
C4990      C4991   1.417       .  A
C4991      C4992   1.405       .  A
C4991      N4998   1.426       .  S
C4992      C4993   1.401       .  A
C4992      H4997   1.084       .  S
C4993      C4994   1.420       .  A
C4994      N4995   1.427   1_565  S
N4995      O4999   1.261   1_545  A
N4995      O5000   1.262       .  A
N4998      O5002   1.261       .  A
N4998      O5001   1.262       .  A
C5003      C5004   1.395   1_455  A
C5003      C5008   1.403       .  A
C5003      H5010   1.085       .  S
C5004      C5005   1.405       .  A
C5005      C5006   1.393       .  A
C5005      N5012   1.426       .  S
C5006      C5007   1.408       .  A
C5006      H5011   1.084       .  S
C5007      C5008   1.421   1_655  A
C5008      N5009   1.424       .  S
N5009      O5013   1.259   1_455  A
N5009      O5014   1.262       .  A
N5012      O5016   1.261       .  A
N5012      O5015   1.262       .  A
C5017      C5018   1.398       .  A
C5017      C5022   1.410       .  A
C5017      H5024   1.084       .  S
C5018      C5019   1.413       .  A
C5019      C5020   1.394       .  A
C5019      N5026   1.428       .  S
C5020      C5021   1.404       .  A
C5020      H5025   1.083       .  S
C5021      C5022   1.426       .  A
C5022      N5023   1.426       .  S
N5023      O5027   1.262   1_655  A
N5023      O5028   1.262       .  A
N5026      O5030   1.262       .  A
N5026      O5029   1.262       .  A
C5031      C5032   1.396       .  A
C5031      C5036   1.388       .  A
C5031      H5038   1.085       .  S
C5032      C5033   1.417       .  A
C5033      C5034   1.400       .  A
C5033      N5040   1.420       .  S
C5034      C5035   1.394       .  A
C5034      H5039   1.084       .  S
C5035      C5036   1.417       .  A
C5036      N5037   1.427       .  S
N5037      O5041   1.261       .  A
N5037      O5042   1.262       .  A
N5040      O5044   1.260       .  A
N5040      O5043   1.262       .  A
C5045      C5046   1.409       .  A
C5045      C5050   1.394       .  A
C5045      H5052   1.084       .  S
C5046      C5047   1.406       .  A
C5047      C5048   1.390       .  A
C5047      N5054   1.427       .  S
C5048      C5049   1.407       .  A
C5048      H5053   1.084       .  S
C5049      C5050   1.409       .  A
C5050      N5051   1.429       .  S
N5051      O5055   1.262       .  A
N5051      O5056   1.260       .  A
N5054      O5058   1.262   1_565  A
N5054      O5057   1.262       .  A
C5059      C5060   1.404       .  A
C5059      C5064   1.407       .  A
C5059      H5066   1.085       .  S
C5060      C5061   1.414       .  A
C5061      C5062   1.396       .  A
C5061      N5068   1.427   1_565  S
C5062      C5063   1.398       .  A
C5062      H5067   1.085   1_565  S
C5063      C5064   1.413       .  A
C5064      N5065   1.426       .  S
N5065      O5069   1.261       .  A
N5065      O5070   1.261       .  A
N5068      O5072   1.262       .  A
N5068      O5071   1.262       .  A
C5073      C5074   1.409       .  A
C5073      C5078   1.396       .  A
C5073      H5080   1.084       .  S
C5074      C5075   1.418       .  A
C5075      C5076   1.416       .  A
C5075      N5082   1.425       .  S
C5076      C5077   1.407       .  A
C5076      H5081   1.084       .  S
C5077      C5078   1.409       .  A
C5078      N5079   1.428       .  S
N5079      O5083   1.262       .  A
N5079      O5084   1.262       .  A
N5082      O5086   1.262       .  A
N5082      O5085   1.262       .  A
C5087      C5088   1.410       .  A
C5087      C5092   1.409       .  A
C5087      H5094   1.084       .  S
C5088      C5089   1.407       .  A
C5089      C5090   1.397       .  A
C5089      N5096   1.415       .  S
C5090      C5091   1.401       .  A
C5090      H5095   1.084       .  S
C5091      C5092   1.417       .  A
C5092      N5093   1.425   1_565  S
N5093      O5097   1.262       .  A
N5093      O5098   1.262       .  A
N5096      O5100   1.261       .  A
N5096      O5099   1.262       .  A
C5101      C5102   1.401       .  A
C5101      C5106   1.396       .  A
C5101      H5108   1.083       .  S
C5102      C5103   1.414       .  A
C5103      C5104   1.393       .  A
C5103      N5110   1.423       .  S
C5104      C5105   1.400       .  A
C5104      H5109   1.084       .  S
C5105      C5106   1.413       .  A
C5106      N5107   1.425       .  S
N5107      O5111   1.261       .  A
N5107      O5112   1.262       .  A
N5110      O5114   1.261       .  A
N5110      O5113   1.262       .  A
C5115      C5116   1.407       .  A
C5115      C5120   1.410       .  A
C5115      H5122   1.084       .  S
C5116      C5117   1.412       .  A
C5117      C5118   1.385       .  A
C5117      N5124   1.428       .  S
C5118      C5119   1.394       .  A
C5118      H5123   1.084       .  S
C5119      C5120   1.408       .  A
C5120      N5121   1.428       .  S
N5121      O5125   1.262       .  A
N5121      O5126   1.262       .  A
N5124      O5128   1.261       .  A
N5124      O5127   1.262       .  A
C5129      C5130   1.395       .  A
C5129      C5134   1.392       .  A
C5129      H5136   1.084       .  S
C5130      C5131   1.422       .  A
C5131      C5132   1.392       .  A
C5131      N5138   1.427       .  S
C5132      C5133   1.395       .  A
C5132      H5137   1.084       .  S
C5133      C5134   1.419       .  A
C5134      N5135   1.427       .  S
N5135      O5139   1.261       .  A
N5135      O5140   1.262       .  A
N5138      O5142   1.261       .  A
N5138      O5141   1.261       .  A
C5143      C5144   1.421       .  A
C5143      C5148   1.407       .  A
C5143      H5150   1.079       .  S
C5144      C5145   1.419       .  A
C5145      C5146   1.416       .  A
C5145      N5152   1.424       .  S
C5146      C5147   1.407       .  A
C5146      H5151   1.083       .  S
C5147      C5148   1.403       .  A
C5148      N5149   1.429       .  S
N5149      O5153   1.262       .  A
N5149      O5154   1.263       .  A
N5152      O5156   1.262       .  A
N5152      O5155   1.262       .  A
C5157      C5158   1.404       .  A
C5157      C5162   1.412       .  A
C5157      H5164   1.084       .  S
C5158      C5159   1.413       .  A
C5159      C5160   1.403       .  A
C5159      N5166   1.426       .  S
C5160      C5161   1.402       .  A
C5160      H5165   1.084       .  S
C5161      C5162   1.419       .  A
C5162      N5163   1.427       .  S
N5163      O5167   1.262       .  A
N5163      O5168   1.262       .  A
N5166      O5170   1.262       .  A
N5166      O5169   1.262       .  A
C5171      C5172   1.403       .  A
C5171      C5176   1.406       .  A
C5171      H5178   1.084       .  S
C5172      C5173   1.420       .  A
C5173      C5174   1.399       .  A
C5173      N5180   1.427       .  S
C5174      C5175   1.396       .  A
C5174      H5179   1.085       .  S
C5175      C5176   1.413       .  A
C5176      N5177   1.422       .  S
N5177      O5181   1.262       .  A
N5177      O5182   1.258       .  A
N5180      O5184   1.262       .  A
N5180      O5183   1.262       .  A
