geometry optimzed in LAMMPS
_audit_creation_date              2020-11-30 
_audit_creation_method            'lammps2cif' 
_symmetry_space_group_name_H-M    'P1' 
_symmetry_Int_Tables_number       1 
_symmetry_cell_setting            triclinic 
loop_ 
_symmetry_equiv_pos_as_xyz 
  x,y,z 
_cell_length_a                    35.68343071 
_cell_length_b                    31.29149091068488 
_cell_length_c                    32.158983879271695 
_cell_angle_alpha                 90.42974050216633 
_cell_angle_beta                  88.93070274008109 
_cell_angle_gamma                 89.59499837674717 
loop_ 
_atom_site_label 
_atom_site_type_symbol 
_atom_site_fract_x 
_atom_site_fract_y 
_atom_site_fract_z 
_atom_site_charge 
C1          C  0.10075216  0.10823017  0.34654720     0.05000
C2          C  0.10165263  0.15341225  0.34521473     0.04900
C3          C  0.12750173  0.17557950  0.36942045    -0.15600
C4          C  0.15363510  0.15332612  0.39319008     0.05000
C5          C  0.15239986  0.10846341  0.39518829     0.04900
C6          C  0.12583026  0.08631609  0.37219611    -0.15600
H7          H  0.12638023  0.05169893  0.37246354     0.07000
H8          H  0.12887301  0.21012727  0.36771637     0.07000
O9          O  0.94352446  0.98796046  0.21024656    -0.69100
O10         O  0.01881232  0.04257763  0.27354946    -0.69300
O11         O  0.01955882  0.98532625  0.21116454    -0.69200
O12         O  0.94380453  0.04589214  0.27300926    -0.69200
O13         O  0.94265339  0.99500153  0.31863626    -0.69100
O14         O  0.00546697  0.43280424  0.24407151    -0.69200
O15         O  0.01722042  0.99064521  0.31803957    -0.69100
O16         O  0.93231302  0.44478390  0.26034547    -0.69300
V17         V  0.98134377  0.01440773  0.24272512     1.35200
V18         V  0.97707895  0.46579968  0.28335577     1.35200
C19         C  0.91916684  0.46260094  0.22865462     0.80100
C20         C  0.03059934  0.02591446  0.30664300     0.80200
C21         C  0.01698149  0.45032593  0.21098958     0.80100
C22         C  0.93115154  0.03111247  0.30697160     0.80000
O23         O  0.02824689  0.27507914  0.20614973    -0.69100
O24         O  0.94979813  0.20701195  0.25043243    -0.69300
O25         O  0.95497431  0.26665512  0.19185556    -0.69200
O26         O  0.02350691  0.21519714  0.26515721    -0.69200
O27         O  0.01170359  0.26457531  0.31152629    -0.69100
O28         O  0.94155748  0.31508606  0.23871617    -0.69200
O29         O  0.93836362  0.25537625  0.29798970    -0.69100
O30         O  0.01569508  0.32435361  0.25244711    -0.69300
V31         V  0.98895935  0.24191620  0.22938892     1.35200
V32         V  0.97704533  0.28900386  0.27419010     1.35200
C33         C  0.03523408  0.31131944  0.22167049     0.80100
C34         C  0.93086091  0.21960608  0.28177905     0.80200
C35         C  0.93609205  0.29909342  0.20307122     0.80100
C36         C  0.02947510  0.23116124  0.30067666     0.80000
C37         C  0.10021764  0.36559150  0.14156606     0.05000
C38         C  0.10230175  0.41030440  0.14933899     0.04900
C39         C  0.12843188  0.43485905  0.12693204    -0.15600
C40         C  0.15034636  0.41696179  0.09461382     0.05000
C41         C  0.14752538  0.37261297  0.08636514     0.04900
C42         C  0.12273149  0.34774224  0.10987152    -0.15600
H43         H  0.12076997  0.31379980  0.10306764     0.07000
H44         H  0.13030238  0.46888571  0.13323470     0.07000
C45         C  0.70562838  0.22844486  0.02841883     0.89200
C46         C  0.68420294  0.25827273  0.99944004    -0.51100
C47         C  0.70480339  0.28962460  0.47988263     0.12100
C48         C  0.74664291  0.28225583  0.48794515     0.23000
C49         C  0.73016741  0.20811058  0.50069309    -0.51800
C50         C  0.75366721  0.23440415  0.47889007     0.12200
C51         C  0.73109361  0.25820836  0.05325486    -0.51300
C52         C  0.75362144  0.28374495  0.02888934     0.12800
H53         H  0.65152927  0.26267837  0.49912323     0.17300
H54         H  0.76534914  0.30375530  0.46983602     0.03000
H55         H  0.72994002  0.17362245  0.49684443     0.17600
H56         H  0.73064163  0.25864010  0.08694290     0.17400
C57         C  0.75874338  0.02194599  0.45572831     0.89200
C58         C  0.73435349  0.98772514  0.43624402    -0.51100
C59         C  0.71741740  0.46826431  0.47133117     0.12100
C60         C  0.71329444  0.47078421  0.01216640     0.23000
C61         C  0.73314762  0.04422798  0.48784374    -0.51800
C62         C  0.71839997  0.01565112  0.01447648     0.12200
C63         C  0.78762070  0.99749108  0.48084300    -0.51300
C64         C  0.75521234  0.46306057  0.01918875     0.12800
H65         H  0.73136722  0.49459825  0.41050229     0.17300
H66         H  0.69472962  0.45141212  0.03264834     0.03000
H67         H  0.72731446  0.07828823  0.48675829     0.17600
H68         H  0.81762001  0.00224203  0.47688352     0.17400
C69         C  0.66327692  0.09364814  0.09087573     0.05000
C70         C  0.66502972  0.13838684  0.09878102     0.04900
C71         C  0.64193433  0.15705957  0.12991083    -0.15600
C72         C  0.61714504  0.13243601  0.15402239     0.05000
C73         C  0.61551246  0.08781001  0.14666106     0.04900
C74         C  0.63825464  0.06897253  0.11508986    -0.15600
H75         H  0.63580186  0.03504635  0.10919869     0.07000
H76         H  0.64396489  0.19107754  0.13595598     0.07000
C77         C  0.64905972  0.40178081  0.40396431     0.05000
C78         C  0.63899317  0.36040802  0.41732021     0.04900
C79         C  0.60999598  0.33866676  0.39735082    -0.15600
C80         C  0.59018873  0.35728166  0.36465150     0.05000
C81         C  0.59838872  0.39993192  0.35326676     0.04900
C82         C  0.62801135  0.42115312  0.37261322    -0.15600
H83         H  0.63474124  0.45344555  0.36313986     0.07000
H84         H  0.60258512  0.30691794  0.40780391     0.07000
C85         C  0.37475365  0.34594742  0.35957108     0.05000
C86         C  0.37185204  0.39105330  0.35511640     0.04900
C87         C  0.34343605  0.41359864  0.37659038    -0.15600
C88         C  0.31614143  0.39253611  0.40057759     0.05000
C89         C  0.31774105  0.34756379  0.40375867     0.04900
C90         C  0.34746902  0.32485727  0.38415047    -0.15600
H91         H  0.34869776  0.29056286  0.38782664     0.07000
H92         H  0.34178191  0.44803358  0.37332712     0.07000
C93         C  0.26554557  0.48014242  0.46752954     0.89200
C94         C  0.27509778  0.01025729  0.49663396    -0.51100
C95         C  0.25715139  0.03835517  0.02238860     0.12100
C96         C  0.21532865  0.03208130  0.01340304     0.23000
C97         C  0.24201273  0.45419967  0.49854858    -0.51800
C98         C  0.21031409  0.46722978  0.00817426     0.12200
C99         C  0.23713543  0.50291682  0.44014640    -0.51700
C100        C  0.20404087  0.03326224  0.46919726     0.12800
H101        H  0.30544229  0.01152817  0.49787350     0.17300
H102        H  0.19629802  0.05224617  0.03315948     0.03000
H103        H  0.23213827  0.41185836  0.97568649     0.17600
H104        H  0.22695760  0.01209405  0.40989934     0.17400
C105        C  0.31281061  0.15279129  0.09530289     0.05000
C106        C  0.31966430  0.10857236  0.09039698     0.04900
C107        C  0.34482814  0.08766668  0.11608134    -0.15600
C108        C  0.36604392  0.10989863  0.14545640     0.05000
C109        C  0.36129942  0.15501749  0.14885972     0.04900
C110        C  0.33370050  0.17556785  0.12497766    -0.15600
H111        H  0.32913133  0.20957710  0.12918020     0.07000
H112        H  0.34745380  0.05333527  0.11275651     0.07000
C113        C  0.20507455  0.22532359  0.46976984     0.89200
C114        C  0.23408149  0.25249125  0.44658628    -0.51100
C115        C  0.26132120  0.26865077  0.47155362     0.12100
C116        C  0.25344825  0.28229683  0.02205151     0.23000
C117        C  0.23153456  0.21084759  0.00488268    -0.51800
C118        C  0.25582257  0.23373837  0.02904430     0.12200
C119        C  0.18817473  0.27112435  0.00500167    -0.51300
C120        C  0.21199756  0.29420204  0.02898844     0.12800
H121        H  0.23337969  0.25783233  0.41327763     0.17300
H122        H  0.27271973  0.30110224  0.04171294     0.03000
H123        H  0.22970642  0.17628362  0.00479113     0.17600
H124        H  0.15791098  0.27493149  0.00685640     0.17400
O125        O  0.44684192  0.47392642  0.16875108    -0.69100
O126        O  0.52236985  0.41666204  0.22992109    -0.69300
O127        O  0.44682236  0.41588796  0.23037570    -0.69200
O128        O  0.52201883  0.47416895  0.16823113    -0.69200
O129        O  0.52408226  0.03104022  0.21386478    -0.69100
O130        O  0.44599686  0.46695985  0.27653883    -0.69200
O131        O  0.52114852  0.46828191  0.27548137    -0.69100
O132        O  0.44868161  0.03780641  0.21907631    -0.69300
V133        V  0.48442441  0.44610942  0.20024019     1.35200
V134        V  0.48592198  0.00454667  0.24634877     1.35200
C135        C  0.43484367  0.02349429  0.18582519     0.80100
C136        C  0.53476283  0.43293576  0.26303390     0.80200
C137        C  0.43400886  0.43114475  0.26429368     0.80100
C138        C  0.53521612  0.01388543  0.18001259     0.80000
O139        O  0.52980886  0.24320226  0.20315632    -0.69100
O140        O  0.45091908  0.28457805  0.27360405    -0.69300
O141        O  0.52513516  0.28990133  0.27433766    -0.69200
O142        O  0.45461112  0.23760837  0.20287799    -0.69200
O143        O  0.45945579  0.17878990  0.23800618    -0.69100
O144        O  0.52721003  0.23217242  0.31144189    -0.69200
O145        O  0.45186902  0.22552693  0.30872067    -0.69100
O146        O  0.53405864  0.18598589  0.24065170    -0.69300
V147        V  0.49020387  0.26265234  0.23916660     1.35200
V148        V  0.49303835  0.20676709  0.27407036     1.35200
C149        C  0.54533683  0.20751237  0.20969214     0.80100
C150        C  0.43812229  0.26242975  0.30325085     0.80200
C151        C  0.53749412  0.27020763  0.30552018     0.80100
C152        C  0.44575790  0.19889312  0.20791120     0.80000
C153        C  0.86510563  0.11824228  0.35340651     0.05000
C154        C  0.86694332  0.16307710  0.36032080     0.04900
C155        C  0.84396110  0.18227921  0.39123029    -0.15600
C156        C  0.81949309  0.15801300  0.41607190     0.05000
C157        C  0.81764304  0.11345746  0.40907263     0.04900
C158        C  0.83891198  0.09467398  0.37674036    -0.15600
H159        H  0.83648960  0.06061023  0.37146296     0.07000
H160        H  0.84656819  0.21625579  0.39713523     0.07000
C161        C  0.86267449  0.40904805  0.14405792     0.05000
C162        C  0.85783151  0.36622241  0.15652624     0.04900
C163        C  0.83174494  0.34054249  0.13624482    -0.15600
C164        C  0.81197581  0.35563599  0.10197812     0.05000
C165        C  0.81976747  0.39715048  0.08699260     0.04900
C166        C  0.84484538  0.42334059  0.10835497    -0.15600
H167        H  0.85005920  0.45552029  0.09742515     0.07000
H168        H  0.82741785  0.30805734  0.14676383     0.07000
C169        C  0.28349789  0.17374435  0.06954581    -0.13800
C170        C  0.28388799  0.21493829  0.05777500    -0.28900
H171        H  0.26114693  0.15362831  0.05867489     0.15300
H172        H  0.30595281  0.23576716  0.06843780     0.15800
C173        C  0.38495973  0.18191185  0.17630169    -0.13800
C174        C  0.42225960  0.17617363  0.17806724    -0.28900
H175        H  0.37171556  0.20761724  0.19425522     0.15300
H176        H  0.43593233  0.15152984  0.15918553     0.15800
C177        C  0.40851760  0.04843781  0.16060275    -0.13800
C178        C  0.39186464  0.08532725  0.17299814    -0.28900
H179        H  0.40389121  0.03588174  0.12963190     0.15300
H180        H  0.39785551  0.09808759  0.20363714     0.15800
C181        C  0.27016834  0.06766640  0.05548269    -0.13800
C182        C  0.30498005  0.08355951  0.05526847    -0.28900
H183        H  0.25065887  0.07642676  0.08049820     0.15300
H184        H  0.32469456  0.07571273  0.03024992     0.15800
C185        C  0.29258417  0.29506055  0.45493267    -0.13800
C186        C  0.28696341  0.32366762  0.42455496    -0.28900
H187        H  0.32027743  0.29111002  0.46786196     0.15300
H188        H  0.25862811  0.32996832  0.41433005     0.15800
C189        C  0.28641939  0.41818736  0.42245119    -0.13800
C190        C  0.29471359  0.45404069  0.44367346    -0.28900
H191        H  0.25781019  0.40659408  0.42303108     0.15300
H192        H  0.32376632  0.46408620  0.44501169     0.15800
C193        C  0.40637629  0.40681355  0.28909678    -0.13800
C194        C  0.39810457  0.41668889  0.32902210    -0.28900
H195        H  0.39394220  0.37880965  0.27487438     0.15300
H196        H  0.40941311  0.44564770  0.34263625     0.15800
C197        C  0.40670999  0.32209542  0.33913622    -0.13800
C198        C  0.40778314  0.27987813  0.33046597    -0.28900
H199        H  0.43073077  0.34061237  0.32895486     0.15300
H200        H  0.38610629  0.25842709  0.34139050     0.15800
C201        C  0.57483270  0.42501580  0.32430887    -0.13800
C202        C  0.56358480  0.41034174  0.28711956    -0.28900
H203        H  0.56596892  0.45668400  0.33472649     0.15300
H204        H  0.57399206  0.37980905  0.27528971     0.15800
C205        C  0.56037714  0.33268709  0.34347999    -0.13800
C206        C  0.56380755  0.29092521  0.33395486    -0.28900
H207        H  0.53603905  0.34984123  0.33238243     0.15300
H208        H  0.58692620  0.27203853  0.34559295     0.15800
C209        C  0.59221650  0.15334405  0.18629000    -0.13800
C210        C  0.57481380  0.19107330  0.18052035    -0.28900
H211        H  0.58561599  0.13600440  0.21449427     0.15300
H212        H  0.58026038  0.20900002  0.15228585     0.15800
C213        C  0.56533853  0.03342017  0.15458646    -0.13800
C214        C  0.58918691  0.06123895  0.17159662    -0.28900
H215        H  0.56702774  0.02613717  0.12152634     0.15300
H216        H  0.58719982  0.06703567  0.20486136     0.15800
C217        C  0.68865378  0.43595373  0.45895301    -0.13800
C218        C  0.68221093  0.42567974  0.41884166    -0.28900
H219        H  0.67090190  0.42257776  0.48327882     0.15300
H220        H  0.69940320  0.43940662  0.39437126     0.15800
C221        C  0.69466290  0.03242450  0.05023201    -0.13800
C222        C  0.68535628  0.07435012  0.05508907    -0.28900
H223        H  0.68587672  0.00951528  0.07349910     0.15300
H224        H  0.69433941  0.09659597  0.03148019     0.15800
C225        C  0.76868354  0.43385522  0.05183594    -0.13800
C226        C  0.80267436  0.41545385  0.04978955    -0.28900
H227        H  0.75075528  0.42883763  0.07902165     0.15300
H228        H  0.82087365  0.42017985  0.02282267     0.15800
C229        C  0.79692648  0.08510713  0.43793617    -0.13800
C230        C  0.77614681  0.05222962  0.42485329    -0.28900
H231        H  0.80014436  0.09005007  0.47112491     0.15300
H232        H  0.77202830  0.04711172  0.39180356     0.15800
C233        C  0.67974806  0.20098492  0.05490818    -0.13800
C234        C  0.69166214  0.16633291  0.07561656    -0.28900
H235        H  0.64993139  0.20840640  0.05541202     0.15300
H236        H  0.72093994  0.15670789  0.07337345     0.15800
C237        C  0.69121397  0.32145439  0.44949293    -0.13800
C238        C  0.65657424  0.33830067  0.45235350    -0.28900
H239        H  0.70949603  0.32976649  0.42344599     0.15300
H240        H  0.63821089  0.33006813  0.47830607     0.15800
C241        C  0.78035513  0.31637315  0.04465096    -0.13800
C242        C  0.78280745  0.32708361  0.08507731    -0.28900
H243        H  0.79912713  0.33122802  0.02218350     0.15300
H244        H  0.76523818  0.31131031  0.10798872     0.15800
C245        C  0.78164193  0.21840869  0.44755001    -0.13800
C246        C  0.79607632  0.17857519  0.44957408    -0.28900
H247        H  0.78907285  0.23926273  0.42194840     0.15300
H248        H  0.78868588  0.15940943  0.47630125     0.15800
C249        C  0.17623494  0.44561339  0.07147423    -0.13800
C250        C  0.18019758  0.44414139  0.03003376    -0.28900
H251        H  0.19226653  0.46870304  0.08908508     0.15300
H252        H  0.16374548  0.42210827  0.01184476     0.15800
C253        C  0.19867338  0.32663812  0.05961675    -0.13800
C254        C  0.16812736  0.35047622  0.05243988    -0.28900
H255        H  0.21286505  0.32932354  0.08910065     0.15300
H256        H  0.15435292  0.34829523  0.02267694     0.15800
C257        C  0.06488535  0.33840589  0.20386547    -0.13800
C258        C  0.07411179  0.33590586  0.16324210    -0.28900
H259        H  0.07706448  0.36270611  0.22359433     0.15300
H260        H  0.06206261  0.31053193  0.14457172     0.15800
C261        C  0.90107838  0.19276237  0.29924552    -0.13800
C262        C  0.89541483  0.19073517  0.34044645    -0.28900
H263        H  0.88467786  0.17350137  0.27819589     0.15300
H264        H  0.91123269  0.21165270  0.36068344     0.15800
C265        C  0.90856354  0.31735870  0.17463032    -0.13800
C266        C  0.88283752  0.34630792  0.18712895    -0.28900
H267        H  0.90946640  0.30676570  0.14234603     0.15300
H268        H  0.88150675  0.35659348  0.21938098     0.15800
C269        C  0.04017072  0.42678962  0.18088927    -0.13800
C270        C  0.07712037  0.43369680  0.17871505    -0.28900
H271        H  0.02697882  0.40305163  0.16133249     0.15300
H272        H  0.08899581  0.45913813  0.19746338     0.15800
C273        C  0.88792524  0.44272239  0.20709111    -0.13800
C274        C  0.88842696  0.43847463  0.16553982    -0.28900
H275        H  0.86702722  0.42615524  0.22573530     0.15300
H276        H  0.90895286  0.45571259  0.14687662     0.15800
C277        C  0.90409283  0.05487566  0.33353991    -0.13800
C278        C  0.89201026  0.09467437  0.32510039    -0.28900
H279        H  0.89527489  0.03931358  0.36209878     0.15300
H280        H  0.90336018  0.10991396  0.29766819     0.15800
C281        C  0.17509747  0.20726449  0.44266098    -0.13800
C282        C  0.18333022  0.17684573  0.41443230    -0.28900
H283        H  0.14603859  0.21667801  0.44826000     0.15300
H284        H  0.21208448  0.16564425  0.41049496     0.15800
C285        C  0.17548334  0.06309279  0.45255888    -0.13800
C286        C  0.18168472  0.08378351  0.41651708    -0.28900
H287        H  0.14906874  0.06737840  0.46944128     0.15300
H288        H  0.20899952  0.08205880  0.40112690     0.15800
C289        C  0.05618626  0.21101896  0.32910969    -0.13800
C290        C  0.07718654  0.17739834  0.31672494    -0.28900
H291        H  0.05773025  0.22293166  0.36085723     0.15300
H292        H  0.07527200  0.16605187  0.28487935     0.15800
C293        C  0.07435814  0.08400008  0.32028575    -0.13800
C294        C  0.05870966  0.04717374  0.33219291    -0.28900
H295        H  0.06625340  0.09736415  0.29077344     0.15300
H296        H  0.06531460  0.03312001  0.36196532     0.15800
C297        C  0.11576624  0.11961534  0.83799587     0.05000
C298        C  0.11434515  0.16456245  0.84313878     0.04900
C299        C  0.13738822  0.18472206  0.87242535    -0.15600
C300        C  0.16327783  0.16096115  0.89562169     0.05000
C301        C  0.16518327  0.11633698  0.88968290     0.04900
C302        C  0.14172128  0.09620148  0.86120092    -0.15600
H303        H  0.14459835  0.06201674  0.85654946     0.07000
H304        H  0.13650939  0.21923038  0.87549936     0.07000
O305        O  0.95029666  0.00275699  0.70481360    -0.69100
O306        O  0.03124611  0.05641272  0.76129241    -0.69300
O307        O  0.02534535  0.00465190  0.69371501    -0.69200
O308        O  0.95613687  0.05475793  0.77159867    -0.69200
O309        O  0.96228006  0.00009000  0.81219493    -0.69100
O310        O  0.02054021  0.43265743  0.74206925    -0.69200
O311        O  0.03677405  0.00027409  0.80009910    -0.69100
O312        O  0.94647100  0.43688614  0.75896037    -0.69300
V313        V  0.99094116  0.02862993  0.73358962     1.35200
V314        V  0.98956108  0.46188868  0.78212900     1.35200
C315        C  0.93065942  0.45455392  0.72874405     0.80100
C316        C  0.04740842  0.03738433  0.79079321     0.80200
C317        C  0.03014978  0.45136548  0.70882258     0.80100
C318        C  0.94738929  0.03601189  0.80511349     0.80000
O319        O  0.03201289  0.27674287  0.70900969    -0.69100
O320        O  0.95479863  0.20797002  0.75455408    -0.69300
O321        O  0.95886288  0.26719305  0.69496183    -0.69200
O322        O  0.02865850  0.21808408  0.76868704    -0.69200
O323        O  0.01658486  0.26814572  0.81428907    -0.69100
O324        O  0.94438659  0.31530050  0.74175836    -0.69200
O325        O  0.94321705  0.25622774  0.80215151    -0.69100
O326        O  0.01866491  0.32686878  0.75413877    -0.69300
V327        V  0.99330612  0.24339453  0.73281100     1.35200
V328        V  0.98087868  0.29079562  0.77710663     1.35200
C329        C  0.03862289  0.31335339  0.72381714     0.80100
C330        C  0.93612575  0.22015282  0.78625401     0.80200
C331        C  0.93942080  0.29931091  0.70599839     0.80100
C332        C  0.03514482  0.23526164  0.80357674     0.80000
C333        C  0.11085899  0.35852461  0.64527889     0.05000
C334        C  0.11484788  0.40370155  0.64855612     0.04900
C335        C  0.14314678  0.42377831  0.62477836    -0.15600
C336        C  0.16600814  0.40041204  0.59636420     0.05000
C337        C  0.16187358  0.35574392  0.59337590     0.04900
C338        C  0.13458868  0.33548932  0.61778509    -0.15600
H339        H  0.13075125  0.30131678  0.61397426     0.07000
H340        H  0.14673007  0.45801428  0.62776552     0.07000
C341        C  0.70267190  0.23156237  0.53000253     0.89200
C342        C  0.68177897  0.26284020  0.50197480    -0.51100
C343        C  0.70669180  0.28341283  0.97488732     0.12100
C344        C  0.74875414  0.27603345  0.98195343     0.23000
C345        C  0.73210125  0.20291588  0.99937897    -0.51800
C346        C  0.75525895  0.22767050  0.97543235     0.12200
C347        C  0.72693154  0.26007433  0.55747317    -0.51300
C348        C  0.74987803  0.28722373  0.53549363     0.12800
H349        H  0.65388679  0.25812137  0.99814917     0.17300
H350        H  0.76716013  0.29617904  0.96204095     0.03000
H351        H  0.73178372  0.16828513  0.99765342     0.17600
H352        H  0.72512206  0.25883995  0.59110359     0.17400
C353        C  0.76151241  0.01726070  0.95458409     0.89200
C354        C  0.73575658  0.98488407  0.93402855    -0.51100
C355        C  0.70851996  0.46176416  0.96553068     0.12100
C356        C  0.72731796  0.47767291  0.51728836     0.23000
C357        C  0.73637375  0.04126090  0.98614158    -0.51800
C358        C  0.71784277  0.01750865  0.51688698     0.12200
C359        C  0.78807970  0.99058272  0.98056670    -0.51300
C360        C  0.77079243  0.47559670  0.51823822     0.12800
H361        H  0.73103460  0.48461933  0.90675323     0.17300
H362        H  0.71291173  0.45658289  0.53998949     0.03000
H363        H  0.73455350  0.07580930  0.98606511     0.17600
H364        H  0.81838565  0.99312404  0.97769175     0.17400
C365        C  0.66599801  0.09423461  0.59522832     0.05000
C366        C  0.66403725  0.13958850  0.59884689     0.04900
C367        C  0.63740918  0.15859939  0.62578844    -0.15600
C368        C  0.61278372  0.13395611  0.64976756     0.05000
C369        C  0.61500326  0.08900087  0.64723573     0.04900
C370        C  0.64119759  0.06950988  0.61979772    -0.15600
H371        H  0.64257293  0.03500995  0.61878882     0.07000
H372        H  0.63667392  0.19310117  0.62897304     0.07000
C373        C  0.65284549  0.38979072  0.89274264     0.05000
C374        C  0.64109215  0.34867136  0.90483983     0.04900
C375        C  0.61147258  0.32943087  0.88391748    -0.15600
C376        C  0.59253778  0.35065462  0.85210277     0.05000
C377        C  0.60247996  0.39318579  0.84224547     0.04900
C378        C  0.63322496  0.41156217  0.86194557    -0.15600
H379        H  0.64118748  0.44401192  0.85427527     0.07000
H380        H  0.60247738  0.29784954  0.89330418     0.07000
C381        C  0.37803699  0.35523631  0.85138602     0.05000
C382        C  0.38314219  0.39897522  0.86142672     0.04900
C383        C  0.36193894  0.41731391  0.89391361    -0.15600
C384        C  0.33374001  0.39411694  0.91443185     0.05000
C385        C  0.32701247  0.35137347  0.90275421     0.04900
C386        C  0.34918975  0.33251745  0.87140892    -0.15600
H387        H  0.34322472  0.29996763  0.86204217     0.07000
H388        H  0.36620246  0.45061287  0.90206879     0.07000
C389        C  0.26313250  0.47471843  0.96065866     0.89200
C390        C  0.28056058  0.01331035  0.99806766    -0.51100
C391        C  0.25160213  0.03319500  0.52278352     0.12100
C392        C  0.20967610  0.02411379  0.51588215     0.23000
C393        C  0.23395613  0.44605151  0.98148609    -0.51800
C394        C  0.21605969  0.47798693  0.52071040     0.12200
C395        C  0.24018351  0.50928395  0.93929955    -0.51700
C396        C  0.21233966  0.04066299  0.96640640     0.12800
H397        H  0.31082011  0.01269077  0.00074989     0.17300
H398        H  0.19048073  0.04249773  0.53704146     0.03000
H399        H  0.24542883  0.41991642  0.50162853     0.17600
H400        H  0.23647958  0.01617230  0.90875071     0.17400
C401        C  0.31441002  0.14646331  0.59756035     0.05000
C402        C  0.31687393  0.10180064  0.58914642     0.04900
C403        C  0.34026889  0.07578812  0.61333211    -0.15600
C404        C  0.36205307  0.09314808  0.64514862     0.05000
C405        C  0.36077537  0.13786243  0.65214602     0.04900
C406        C  0.33624626  0.16347729  0.62931058    -0.15600
H407        H  0.33470091  0.19750484  0.63586373     0.07000
H408        H  0.34155035  0.04171377  0.60708758     0.07000
C409        C  0.20775515  0.23867609  0.97602752     0.89200
C410        C  0.23625404  0.26502092  0.95096555    -0.51100
C411        C  0.26027704  0.28815592  0.97508409     0.12100
C412        C  0.25677672  0.25571917  0.51777019     0.23000
C413        C  0.22782793  0.19080145  0.49174435    -0.51800
C414        C  0.25505132  0.20629013  0.51650560     0.12200
C415        C  0.18969155  0.25434971  0.50445751    -0.51300
C416        C  0.21649020  0.27079646  0.52966031     0.12800
H417        H  0.23684129  0.26485916  0.91726870     0.17300
H418        H  0.27887558  0.26868953  0.53809813     0.03000
H419        H  0.22344536  0.15673937  0.48723966     0.17600
H420        H  0.15999322  0.26131649  0.50874716     0.17400
O421        O  0.44691229  0.50720710  0.68190584    -0.69100
O422        O  0.51863000  0.43080231  0.72856367    -0.69300
O423        O  0.44390039  0.44264169  0.73663931    -0.69200
O424        O  0.52145009  0.49484291  0.67346446    -0.69200
O425        O  0.52216612  0.03500922  0.71452879    -0.69100
O426        O  0.45253946  0.48762027  0.78735842    -0.69200
O427        O  0.52658253  0.47584564  0.77928873    -0.69100
O428        O  0.44651686  0.03166033  0.71614044    -0.69300
V429        V  0.48282290  0.46970163  0.70614101     1.35200
V430        V  0.48515569  0.00842043  0.74886822     1.35200
C431        C  0.43545902  0.01185664  0.68429311     0.80100
C432        C  0.53497993  0.44067478  0.76188120     0.80200
C433        C  0.43549910  0.45560906  0.77289399     0.80100
C434        C  0.53710838  0.01429300  0.68441852     0.80000
O435        O  0.52510944  0.24655053  0.69046045    -0.69100
O436        O  0.44895235  0.29175110  0.76153308    -0.69300
O437        O  0.52316853  0.29185838  0.76198162    -0.69200
O438        O  0.44994553  0.24646359  0.69053587    -0.69200
O439        O  0.44750209  0.18922368  0.72834202    -0.69100
O440        O  0.52555172  0.23161509  0.79517272    -0.69200
O441        O  0.45057860  0.23440706  0.79922659    -0.69100
O442        O  0.52282835  0.18672924  0.72431674    -0.69300
V443        V  0.48681694  0.26797889  0.72674302     1.35200
V444        V  0.48659158  0.21151259  0.76096986     1.35200
C445        C  0.53690723  0.20885626  0.69529005     0.80100
C446        C  0.43777636  0.27148792  0.79316727     0.80200
C447        C  0.53656792  0.26955771  0.79082946     0.80100
C448        C  0.43560465  0.21049262  0.69795746     0.80000
C449        C  0.87622896  0.11385078  0.85836619     0.05000
C450        C  0.87498413  0.15884220  0.86469924     0.04900
C451        C  0.84970202  0.17650879  0.89413127    -0.15600
C452        C  0.82502691  0.15082487  0.91737950     0.05000
C453        C  0.82651948  0.10597739  0.91143898     0.04900
C454        C  0.85130396  0.08817292  0.88149524    -0.15600
H455        H  0.85179050  0.05380954  0.87716042     0.07000
H456        H  0.85025802  0.21067422  0.89967112     0.07000
C457        C  0.86076221  0.40635980  0.65184868     0.05000
C458        C  0.85717456  0.36258176  0.66190096     0.04900
C459        C  0.82935037  0.33815916  0.64316322    -0.15600
C460        C  0.80542152  0.35576622  0.61358961     0.05000
C461        C  0.80899803  0.39937432  0.60269749     0.04900
C462        C  0.83691586  0.42398748  0.62213297    -0.15600
H463        H  0.83950875  0.45767480  0.61520879     0.07000
H464        H  0.82674853  0.30467999  0.65118888     0.07000
C465        C  0.28896561  0.17720558  0.57633479    -0.13800
C466        C  0.28211297  0.17655323  0.53555169    -0.28900
H467        H  0.27655526  0.20288426  0.59507208     0.15300
H468        H  0.29464304  0.15223400  0.51550749     0.15800
C469        C  0.38668683  0.15861857  0.68155292    -0.13800
C470        C  0.40616219  0.19362770  0.67115596    -0.28900
H471        H  0.39199630  0.14358327  0.71113121     0.15300
H472        H  0.40149534  0.20929119  0.64164699     0.15800
C473        C  0.40661952  0.03146297  0.65741520    -0.13800
C474        C  0.38631917  0.06539495  0.67130647    -0.28900
H475        H  0.40394891  0.01993726  0.62570014     0.15300
H476        H  0.38953302  0.07489856  0.70349615     0.15800
C477        C  0.26529661  0.06181441  0.55635076    -0.13800
C478        C  0.29883027  0.08099663  0.55342659    -0.28900
H479        H  0.24808771  0.06606593  0.58430452     0.15300
H480        H  0.31574904  0.07782706  0.52517307     0.15800
C481        C  0.29038287  0.31660364  0.95902073    -0.13800
C482        C  0.29478339  0.32646792  0.91867927    -0.28900
H483        H  0.31006859  0.32917544  0.98128226     0.15300
H484        H  0.27650998  0.31296648  0.89557428     0.15800
C485        C  0.30889654  0.41694785  0.94408245    -0.13800
C486        C  0.28939389  0.45111391  0.93163253    -0.28900
H487        H  0.30531561  0.40497184  0.97548218     0.15300
H488        H  0.29199842  0.46152509  0.89951884     0.15800
C489        C  0.40702396  0.43254358  0.79732787    -0.13800
C490        C  0.40972999  0.42689406  0.83850684    -0.28900
H491        H  0.38547203  0.41574071  0.78040709     0.15300
H492        H  0.43084490  0.44391134  0.85587720     0.15800
C493        C  0.40274956  0.33295403  0.82057267    -0.13800
C494        C  0.41124492  0.29116899  0.82294899    -0.28900
H495        H  0.41639193  0.35143714  0.79646326     0.15300
H496        H  0.40059128  0.27175090  0.84830660     0.15800
C497        C  0.57889567  0.42211284  0.81691666    -0.13800
C498        C  0.56265895  0.41163365  0.78076142    -0.28900
H499        H  0.57442209  0.45407656  0.82960800     0.15300
H500        H  0.56857868  0.38106568  0.76578178     0.15800
C501        C  0.56172958  0.32866285  0.83075217    -0.13800
C502        C  0.56437102  0.28760935  0.81870154    -0.28900
H503        H  0.53722938  0.34706901  0.82208574     0.15300
H504        H  0.58766056  0.26755623  0.82803188     0.15800
C505        C  0.58465978  0.15518691  0.67768012    -0.13800
C506        C  0.56644592  0.19118035  0.66765185    -0.28900
H507        H  0.57738126  0.13999078  0.70688625     0.15300
H508        H  0.57281561  0.20756419  0.63874454     0.15800
C509        C  0.56691331  0.03315816  0.65815976    -0.13800
C510        C  0.58976503  0.06276625  0.67371027    -0.28900
H511        H  0.56947951  0.02349938  0.62570202     0.15300
H512        H  0.58720549  0.07081518  0.70654035     0.15800
C513        C  0.68116724  0.43015551  0.94993638    -0.13800
C514        C  0.68428316  0.41249860  0.91184100    -0.28900
H515        H  0.65727744  0.42231734  0.96980451     0.15300
H516        H  0.70791146  0.42001149  0.89157379     0.15800
C517        C  0.69214031  0.03297637  0.55094713    -0.13800
C518        C  0.69338104  0.07375298  0.56521893    -0.28900
H519        H  0.67181016  0.01054794  0.56308443     0.15300
H520        H  0.71538788  0.09389228  0.55292239     0.15800
C521        C  0.79460772  0.45102233  0.54723413    -0.13800
C522        C  0.78270958  0.42026914  0.57318208    -0.28900
H523        H  0.82427438  0.45866121  0.54658182     0.15300
H524        H  0.75386394  0.40964525  0.57231176     0.15800
C525        C  0.80485799  0.07703425  0.93896622    -0.13800
C526        C  0.78216428  0.04635056  0.92464721    -0.28900
H527        H  0.80748358  0.08127564  0.97234762     0.15300
H528        H  0.77865844  0.04233784  0.89135552     0.15800
C529        C  0.67689766  0.20184952  0.55381258    -0.13800
C530        C  0.68984089  0.16841368  0.57562729    -0.28900
H531        H  0.64681196  0.20701043  0.55208412     0.15300
H532        H  0.71978693  0.16210618  0.57621240     0.15800
C533        C  0.69280339  0.31382913  0.94307064    -0.13800
C534        C  0.65652359  0.32518721  0.94049545    -0.28900
H535        H  0.71282040  0.32579525  0.92020795     0.15300
H536        H  0.63605641  0.31295154  0.96256973     0.15800
C537        C  0.77491784  0.31979093  0.55424504    -0.13800
C538        C  0.77727314  0.32679282  0.59545364    -0.28900
H539        H  0.79262388  0.33809948  0.53321252     0.15300
H540        H  0.76135830  0.30752105  0.61721421     0.15800
C541        C  0.78359002  0.21020580  0.94518584    -0.13800
C542        C  0.79806853  0.17040497  0.94829852    -0.28900
H543        H  0.79235403  0.23089807  0.91999423     0.15300
H544        H  0.78899918  0.15093178  0.97419403     0.15800
C545        C  0.19453026  0.42171544  0.56956797    -0.13800
C546        C  0.18927965  0.46011014  0.55192607    -0.28900
H547        H  0.21969934  0.40343370  0.56205788     0.15300
H548        H  0.16426312  0.47870983  0.55954135     0.15800
C549        C  0.20641915  0.30091143  0.56413699    -0.13800
C550        C  0.17964649  0.33087081  0.55883796    -0.28900
H551        H  0.21972390  0.29740281  0.59401369     0.15300
H552        H  0.16834098  0.33591721  0.52810471     0.15800
C553        C  0.06899238  0.33958931  0.70606942    -0.13800
C554        C  0.08115454  0.33325695  0.66667338    -0.28900
H555        H  0.08074408  0.36460779  0.72524083     0.15300
H556        H  0.06953581  0.30684202  0.64904994     0.15800
C557        C  0.90700581  0.19240758  0.80408465    -0.13800
C558        C  0.90233961  0.18853656  0.84533674    -0.28900
H559        H  0.89054475  0.17327621  0.78296949     0.15300
H560        H  0.91814749  0.20904121  0.86595615     0.15800
C561        C  0.91206969  0.31776677  0.67724950    -0.13800
C562        C  0.88276832  0.34121549  0.69102617    -0.28900
H563        H  0.91597062  0.31193072  0.64408972     0.15300
H564        H  0.87763839  0.34508795  0.72420952     0.15800
C565        C  0.05305277  0.42888644  0.67688716    -0.13800
C566        C  0.09064772  0.43130251  0.67607376    -0.28900
H567        H  0.03894689  0.40692986  0.65620354     0.15300
H568        H  0.10422963  0.45451174  0.69596438     0.15800
C569        C  0.89758892  0.43407247  0.71082084    -0.13800
C570        C  0.89030578  0.43402159  0.66998913    -0.28900
H571        H  0.88022100  0.41561523  0.73192063     0.15300
H572        H  0.90669754  0.45405525  0.64915731     0.15800
C573        C  0.92028376  0.05516649  0.83540061    -0.13800
C574        C  0.90391698  0.09336661  0.82882224    -0.28900
H575        H  0.91416476  0.03766622  0.86371772     0.15300
H576        H  0.91192299  0.11010387  0.80085563     0.15800
C577        C  0.18011282  0.21471864  0.94926666    -0.13800
C578        C  0.19046383  0.18296125  0.92306164    -0.28900
H579        H  0.15069690  0.22392141  0.95121777     0.15300
H580        H  0.21943446  0.17201320  0.92259183     0.15800
C581        C  0.18680779  0.07313390  0.94857506    -0.13800
C582        C  0.19315215  0.08969296  0.91060194    -0.28900
H583        H  0.16214425  0.08301493  0.96657030     0.15300
H584        H  0.21819450  0.08145641  0.89261884     0.15800
C585        C  0.06346627  0.21708310  0.83132941    -0.13800
C586        C  0.08996829  0.19037707  0.81622114    -0.28900
H587        H  0.06173883  0.22431173  0.86440624     0.15300
H588        H  0.09155946  0.18412763  0.78296472     0.15800
C589        C  0.08955598  0.09731555  0.80909269    -0.13800
C590        C  0.07710684  0.05744490  0.81562724    -0.28900
H591        H  0.07779543  0.11480553  0.78339463     0.15300
H592        H  0.08696382  0.03940160  0.84200468     0.15800
C593        C  0.11208842  0.59690924  0.33072215     0.05000
C594        C  0.10977508  0.64204349  0.33319389     0.04900
C595        C  0.13124843  0.66391184  0.36274536    -0.15600
C596        C  0.15544454  0.64153983  0.38903765     0.05000
C597        C  0.15933233  0.59690869  0.38434765     0.04900
C598        C  0.13768662  0.57506392  0.35549730    -0.15600
H599        H  0.14092205  0.54070884  0.35226768     0.07000
H600        H  0.12880819  0.69832566  0.36571215     0.07000
O601        O  0.93454099  0.49617826  0.21521894    -0.69100
O602        O  0.01967324  0.54092662  0.26894178    -0.69300
O603        O  0.00852247  0.48879156  0.20442355    -0.69200
O604        O  0.94542301  0.54936740  0.28024536    -0.69200
O605        O  0.94859433  0.49686921  0.32394818    -0.69100
O606        O  0.01649592  0.93375890  0.25596345    -0.69200
O607        O  0.02185506  0.48478086  0.30825014    -0.69100
O608        O  0.94044818  0.93800188  0.25676561    -0.69300
V609        V  0.97695685  0.51786281  0.24309682     1.35200
V610        V  0.97921582  0.96519626  0.28620490     1.35200
C611        C  0.92831509  0.95426419  0.22376113     0.80100
C612        C  0.03557057  0.52011315  0.29729946     0.80200
C613        C  0.03169323  0.94976911  0.22391589     0.80100
C614        C  0.93692534  0.53389394  0.31533862     0.80000
O615        O  0.03071840  0.74671506  0.19264629    -0.69100
O616        O  0.94801402  0.69758421  0.24976498    -0.69300
O617        O  0.95553618  0.74833366  0.18363845    -0.69200
O618        O  0.02312346  0.69685353  0.25883118    -0.69200
O619        O  0.02215952  0.75474738  0.29661464    -0.69100
O620        O  0.94794916  0.80137785  0.22701072    -0.69200
O621        O  0.94712406  0.75044141  0.29403032    -0.69100
O622        O  0.02316277  0.80509389  0.22903778    -0.69300
V623        V  0.98922859  0.72340904  0.22199631     1.35200
V624        V  0.98516435  0.77696589  0.26086694     1.35200
C625        C  0.04074540  0.78435598  0.20076202     0.80100
C626        C  0.93410884  0.71494722  0.28212689     0.80200
C627        C  0.93934781  0.78318755  0.19329945     0.80100
C628        C  0.03501155  0.71763508  0.28981656     0.80000
C629        C  0.10375262  0.86420115  0.14243513     0.05000
C630        C  0.10510270  0.90951813  0.14228349     0.04900
C631        C  0.13329763  0.92985375  0.11874319    -0.15600
C632        C  0.16083033  0.90630146  0.09609010     0.05000
C633        C  0.16091540  0.86105397  0.09858649     0.04900
C634        C  0.13227942  0.84078401  0.12155171    -0.15600
H635        H  0.13158641  0.80623661  0.12163564     0.07000
H636        H  0.13377549  0.96444304  0.11846543     0.07000
C637        C  0.70195241  0.72754348  0.02985183     0.89200
C638        C  0.68246787  0.75660391  0.99876813    -0.51100
C639        C  0.70606599  0.79198317  0.47922534     0.12100
C640        C  0.74823452  0.78633490  0.48719058     0.23000
C641        C  0.73336515  0.71247952  0.50347208    -0.51800
C642        C  0.75613389  0.73836703  0.48028922     0.12200
C643        C  0.72562557  0.75778738  0.05613294    -0.51300
C644        C  0.74980464  0.78248040  0.03308511     0.12800
H645        H  0.65377487  0.76392024  0.50074180     0.17300
H646        H  0.76641759  0.80735999  0.46792064     0.03000
H647        H  0.73405252  0.67783106  0.50143213     0.17600
H648        H  0.72246634  0.75963689  0.08967728     0.17400
C649        C  0.76059229  0.52816806  0.46419284     0.89200
C650        C  0.73534932  0.49502015  0.44379435    -0.51100
C651        C  0.71823366  0.96020689  0.46423399     0.12100
C652        C  0.72739836  0.96739719  0.00755376     0.23000
C653        C  0.73496603  0.55164276  0.49552298    -0.51800
C654        C  0.70775788  0.51931728  0.01777525     0.12200
C655        C  0.78764371  0.50216269  0.49030110    -0.51300
C656        C  0.77088224  0.96471450  0.00879966     0.12800
H657        H  0.72885156  0.98763231  0.40323415     0.17300
H658        H  0.71278746  0.94633723  0.03012289     0.03000
H659        H  0.73058048  0.58597747  0.49447522     0.17600
H660        H  0.81790732  0.50512658  0.48729079     0.17400
C661        C  0.65928560  0.59742452  0.09706704     0.05000
C662        C  0.65927032  0.64236978  0.10255826     0.04900
C663        C  0.63306887  0.66199237  0.12969493    -0.15600
C664        C  0.60703251  0.63785765  0.15253267     0.05000
C665        C  0.60760974  0.59277637  0.14825438     0.04900
C666        C  0.63362378  0.57315617  0.12064592    -0.15600
H667        H  0.63442523  0.53865811  0.11870680     0.07000
H668        H  0.63373921  0.69638913  0.13374154     0.07000
C669        C  0.65048164  0.89459885  0.39622211     0.05000
C670        C  0.63856405  0.85374978  0.40903134     0.04900
C671        C  0.60830718  0.83417754  0.38909045    -0.15600
C672        C  0.58885788  0.85477044  0.35724764     0.05000
C673        C  0.59927359  0.89702123  0.34645542     0.04900
C674        C  0.63036924  0.91571599  0.36531579    -0.15600
H675        H  0.63862947  0.94770079  0.35631707     0.07000
H676        H  0.59935368  0.80283288  0.39920767     0.07000
C677        C  0.37466788  0.85727935  0.36157563     0.05000
C678        C  0.37608496  0.90264457  0.36443610     0.04900
C679        C  0.35318175  0.92380045  0.39412071    -0.15600
C680        C  0.32668670  0.90143967  0.41830448     0.05000
C681        C  0.32274786  0.85712407  0.41271208     0.04900
C682        C  0.34728610  0.83534486  0.38526189    -0.15600
H683        H  0.34419740  0.80114302  0.38232920     0.07000
H684        H  0.35528081  0.95818020  0.39771222     0.07000
C685        C  0.25473665  0.98105432  0.46617470     0.89200
C686        C  0.28269174  0.51586415  0.49376358    -0.51100
C687        C  0.25901742  0.52002909  0.02215135     0.12100
C688        C  0.21738938  0.51573674  0.01104710     0.23000
C689        C  0.22961410  0.95276998  0.49346640    -0.51800
C690        C  0.20925001  0.98366590  0.01861514     0.12200
C691        C  0.22773078  0.01040024  0.44358770    -0.51700
C692        C  0.21141803  0.52718793  0.46212617     0.12800
H693        H  0.31273918  0.52014393  0.49601476     0.17300
H694        H  0.19778151  0.53312679  0.03253804     0.03000
H695        H  0.23136603  0.92432465  0.99287912     0.17600
H696        H  0.23760007  0.50019118  0.40646194     0.17400
C697        C  0.31862803  0.64227679  0.08509683     0.05000
C698        C  0.32024908  0.59709424  0.08374341     0.04900
C699        C  0.34199375  0.57456407  0.11202376    -0.15600
C700        C  0.36410212  0.59567904  0.14127893     0.05000
C701        C  0.36212783  0.64104614  0.14381391     0.04900
C702        C  0.33925582  0.66381606  0.11584407    -0.15600
H703        H  0.33836724  0.69836020  0.11750178     0.07000
H704        H  0.34223947  0.54000239  0.11014802     0.07000
C705        C  0.21302178  0.72287534  0.45275113     0.89200
C706        C  0.23781311  0.76004530  0.43884348    -0.51100
C707        C  0.25629885  0.77996812  0.47052027     0.12100
C708        C  0.24635133  0.77201863  0.02361362     0.23000
C709        C  0.23885626  0.70042151  0.99430373    -0.51800
C710        C  0.25546890  0.72355470  0.02538428     0.12200
C711        C  0.18722991  0.75136030  0.99264874    -0.51300
C712        C  0.20287462  0.77502451  0.02345606     0.12800
H713        H  0.24225273  0.76753725  0.40625039     0.17300
H714        H  0.25972418  0.79082678  0.04860746     0.03000
H715        H  0.24125688  0.66600171  0.99090951     0.17600
H716        H  0.15716568  0.75018658  0.98795145     0.17400
O717        O  0.44497304  0.98685403  0.17308270    -0.69100
O718        O  0.51830058  0.92230358  0.22950515    -0.69300
O719        O  0.44297442  0.92908154  0.23484115    -0.69200
O720        O  0.51965679  0.97987798  0.16820407    -0.69200
O721        O  0.52069737  0.52549283  0.21413362    -0.69100
O722        O  0.44834473  0.97942015  0.28119012    -0.69200
O723        O  0.52340557  0.97364460  0.27486583    -0.69100
O724        O  0.44539497  0.52503479  0.21484600    -0.69300
V725        V  0.48143208  0.95550195  0.20239017     1.35200
V726        V  0.48325659  0.49544843  0.24431378     1.35200
C727        C  0.43362515  0.50953582  0.18110869     0.80100
C728        C  0.53378510  0.93727264  0.26140802     0.80200
C729        C  0.43310050  0.94502912  0.26967187     0.80100
C730        C  0.53425070  0.50966963  0.18074863     0.80000
O731        O  0.52105652  0.75284944  0.19539359    -0.69100
O732        O  0.44237018  0.79669598  0.26487369    -0.69300
O733        O  0.51680317  0.79676644  0.26809252    -0.69200
O734        O  0.44584841  0.75307594  0.19210657    -0.69200
O735        O  0.44327872  0.69398486  0.22702918    -0.69100
O736        O  0.51673251  0.73642625  0.30110843    -0.69200
O737        O  0.44111934  0.73715727  0.29931043    -0.69100
O738        O  0.51870148  0.69287546  0.22889502    -0.69300
V739        V  0.48147363  0.77365831  0.23074012     1.35200
V740        V  0.47999569  0.71625371  0.26339521     1.35200
C741        C  0.53321788  0.71522658  0.20031068     0.80100
C742        C  0.42890250  0.77465943  0.29429512     0.80200
C743        C  0.52875230  0.77418956  0.29756978     0.80100
C744        C  0.43222101  0.71621160  0.19679760     0.80000
C745        C  0.87366056  0.62065116  0.36544846     0.05000
C746        C  0.87426602  0.66586655  0.36969693     0.04900
C747        C  0.85069995  0.68577734  0.39952664    -0.15600
C748        C  0.82606946  0.66189046  0.42472707     0.05000
C749        C  0.82497525  0.61698141  0.41981733     0.04900
C750        C  0.84805648  0.59719106  0.38972670    -0.15600
H751        H  0.84669898  0.56279412  0.38615816     0.07000
H752        H  0.85229170  0.72010483  0.40370027     0.07000
C753        C  0.86398799  0.90319407  0.14315895     0.05000
C754        C  0.86368871  0.85868055  0.15108656     0.04900
C755        C  0.83553013  0.83343459  0.13394593    -0.15600
C756        C  0.80873480  0.85077633  0.10747375     0.05000
C757        C  0.81010957  0.89465439  0.09727950     0.04900
C758        C  0.83784553  0.92036810  0.11558154    -0.15600
H759        H  0.83858260  0.95430527  0.10912443     0.07000
H760        H  0.83459644  0.79962537  0.14108609     0.07000
C761        C  0.29646276  0.66556816  0.05298677    -0.13800
C762        C  0.27988648  0.70430957  0.05797090    -0.28900
H763        H  0.29271656  0.64893019  0.02374934     0.15300
H764        H  0.28378895  0.72241578  0.08643098     0.15800
C765        C  0.38447664  0.66432838  0.17538937    -0.13800
C766        C  0.40497176  0.69915331  0.16677432    -0.28900
H767        H  0.38632984  0.65073001  0.20620987     0.15300
H768        H  0.40329589  0.71405763  0.13645936     0.15800
C769        C  0.40582880  0.53254510  0.15578552    -0.13800
C770        C  0.39028854  0.57025752  0.16779122    -0.28900
H771        H  0.39957451  0.51870140  0.12570478     0.15300
H772        H  0.39851055  0.58330870  0.19749879     0.15800
C773        C  0.27264535  0.54786276  0.05599234    -0.13800
C774        C  0.30309735  0.57220878  0.04996391    -0.28900
H775        H  0.25732978  0.54904314  0.08548000     0.15300
H776        H  0.31681066  0.57321678  0.01953757     0.15800
C777        C  0.28678950  0.81159071  0.46266991    -0.13800
C778        C  0.28864156  0.83450844  0.42739455    -0.28900
H779        H  0.30932679  0.81373022  0.48479692     0.15300
H780        H  0.26562382  0.83377961  0.40585015     0.15800
C781        C  0.30257182  0.92486770  0.44861883    -0.13800
C782        C  0.28051708  0.95703116  0.43643277    -0.28900
H783        H  0.30121848  0.91387368  0.48057098     0.15300
H784        H  0.28056380  0.96552911  0.40369621     0.15800
C785        C  0.40502678  0.92275651  0.29604198    -0.13800
C786        C  0.40130075  0.92924328  0.33748136    -0.28900
H787        H  0.38880969  0.89780969  0.28132109     0.15300
H788        H  0.41647965  0.95515101  0.35204218     0.15800
C789        C  0.40283132  0.83360068  0.33521454    -0.13800
C790        C  0.40008640  0.79275768  0.32255415    -0.28900
H791        H  0.42789336  0.85062325  0.32556651     0.15300
H792        H  0.37742436  0.77226478  0.33266340     0.15800
C793        C  0.57633205  0.92477117  0.31940458    -0.13800
C794        C  0.56247123  0.91199660  0.28284215    -0.28900
H795        H  0.56995468  0.95678452  0.33093727     0.15300
H796        H  0.57037539  0.88104862  0.26978132     0.15800
C797        C  0.55675288  0.83311202  0.33692759    -0.13800
C798        C  0.55685062  0.79138358  0.32637490    -0.28900
H799        H  0.53326974  0.85259782  0.32720634     0.15300
H800        H  0.57889901  0.77014073  0.33675765     0.15800
C801        C  0.57945457  0.65967542  0.18105014    -0.13800
C802        C  0.56319672  0.69752550  0.17283187    -0.28900
H803        H  0.57088449  0.64351267  0.20928553     0.15300
H804        H  0.57082083  0.71499850  0.14491620     0.15800
C805        C  0.56327681  0.53231581  0.15652876    -0.13800
C806        C  0.58109273  0.56602703  0.17271365    -0.28900
H807        H  0.56915978  0.52198624  0.12473499     0.15300
H808        H  0.57480741  0.57504348  0.20470352     0.15800
C809        C  0.68921772  0.92822635  0.45209337    -0.13800
C810        C  0.68424054  0.91650466  0.41201830    -0.28900
H811        H  0.66996331  0.91685632  0.47602032     0.15300
H812        H  0.70341067  0.92765963  0.38803631     0.15800
C813        C  0.68072856  0.53793769  0.04876779    -0.13800
C814        C  0.68605473  0.57650814  0.06670304    -0.28900
H815        H  0.65655131  0.51881855  0.05701167     0.15300
H816        H  0.71105588  0.59397009  0.05796862     0.15800
C817        C  0.79467202  0.94120550  0.03869271    -0.13800
C818        C  0.78266772  0.91438202  0.06839746    -0.28900
H819        H  0.82466976  0.94685322  0.03612225     0.15300
H820        H  0.75336758  0.90550602  0.07056888     0.15800
C821        C  0.80212776  0.58964319  0.44794635    -0.13800
C822        C  0.78054333  0.55762386  0.43407493    -0.28900
H823        H  0.80392038  0.59505304  0.48123536     0.15300
H824        H  0.77775918  0.55241390  0.40083722     0.15800
C825        C  0.67479272  0.70072249  0.05473666    -0.13800
C826        C  0.68644046  0.66980707  0.08021407    -0.28900
H827        H  0.64487602  0.70563870  0.05077673     0.15300
H828        H  0.71621467  0.66332844  0.08315985     0.15800
C829        C  0.69146655  0.82103104  0.44685579    -0.13800
C830        C  0.65483592  0.83078354  0.44431174    -0.28900
H831        H  0.71113975  0.83321873  0.42375509     0.15300
H832        H  0.63479160  0.81848663  0.46680680     0.15800
C833        C  0.77508652  0.81543137  0.05035416    -0.13800
C834        C  0.78027627  0.82117001  0.09127619    -0.28900
H835        H  0.79110417  0.83453718  0.02837563     0.15300
H836        H  0.76690789  0.80027543  0.11369362     0.15800
C837        C  0.78496917  0.72170563  0.45052229    -0.13800
C838        C  0.80133566  0.68337479  0.45616762    -0.28900
H839        H  0.79176794  0.74073119  0.42337345     0.15300
H840        H  0.79461531  0.66595845  0.48427266     0.15800
C841        C  0.18856379  0.92839004  0.06846272    -0.13800
C842        C  0.18186625  0.96564404  0.04899386    -0.28900
H843        H  0.21517891  0.91257870  0.06220569     0.15300
H844        H  0.15617010  0.98349283  0.05504263     0.15800
C845        C  0.17800008  0.80073237  0.05177830    -0.13800
C846        C  0.18901855  0.83409315  0.07495238    -0.28900
H847        H  0.14820808  0.79381967  0.05077826     0.15300
H848        H  0.21827138  0.84316056  0.07446939     0.15800
C849        C  0.07308044  0.80275364  0.17854057    -0.13800
C850        C  0.07102840  0.84163274  0.16150940    -0.28900
H851        H  0.09873262  0.78399924  0.17687507     0.15300
H852        H  0.04414680  0.85814101  0.16292294     0.15800
C853        C  0.90366413  0.69328198  0.30493493    -0.13800
C854        C  0.90135858  0.69317485  0.34660651    -0.28900
H855        H  0.88472720  0.67362634  0.28708411     0.15300
H856        H  0.91962067  0.71370464  0.36444849     0.15800
C857        C  0.91081842  0.80204184  0.16608985    -0.13800
C858        C  0.89236378  0.83800520  0.17737196    -0.28900
H859        H  0.90504377  0.78649615  0.13660845     0.15300
H860        H  0.89907204  0.85259846  0.20680865     0.15800
C861        C  0.06313171  0.92691789  0.20298188    -0.13800
C862        C  0.07662360  0.93680109  0.16486456    -0.28900
H863        H  0.07475148  0.89975199  0.21928729     0.15300
H864        H  0.06664299  0.96550919  0.14968551     0.15800
C865        C  0.89635840  0.93403294  0.20323608    -0.13800
C866        C  0.89229185  0.93202429  0.16184674    -0.28900
H867        H  0.87696835  0.91662760  0.22317038     0.15300
H868        H  0.91050875  0.95039040  0.14141263     0.15800
C869        C  0.91352142  0.55799458  0.34552787    -0.13800
C870        C  0.89995151  0.59707660  0.33689207    -0.28900
H871        H  0.90717861  0.54300729  0.37514961     0.15300
H872        H  0.90843016  0.61144358  0.30780792     0.15800
C873        C  0.19330972  0.70093427  0.41730692    -0.13800
C874        C  0.17473703  0.66419439  0.42304909    -0.28900
H875        H  0.19501131  0.71469955  0.38640695     0.15300
H876        H  0.17492918  0.64923261  0.45342997     0.15800
C877        C  0.18239126  0.55389224  0.44245663    -0.13800
C878        C  0.18871342  0.57267578  0.40568706    -0.28900
H879        H  0.15599389  0.55942705  0.45906693     0.15300
H880        H  0.21563871  0.56912360  0.38970898     0.15800
C881        C  0.06297215  0.69902236  0.31772887    -0.13800
C882        C  0.08441808  0.66580943  0.30525381    -0.28900
H883        H  0.06523093  0.71209259  0.34895425     0.15300
H884        H  0.08188696  0.65442180  0.27349968     0.15800
C885        C  0.08590012  0.57234787  0.30450414    -0.13800
C886        C  0.06826863  0.53746225  0.31864807    -0.28900
H887        H  0.07751213  0.58542487  0.27496843     0.15300
H888        H  0.07573378  0.52355923  0.34824419     0.15800
C889        C  0.11137689  0.60564286  0.84182477     0.05000
C890        C  0.10781052  0.65048245  0.84734838     0.04900
C891        C  0.12843705  0.67120252  0.87848738    -0.15600
C892        C  0.15374604  0.64827060  0.90298453     0.05000
C893        C  0.15935757  0.60443118  0.89506204     0.04900
C894        C  0.13826968  0.58356112  0.86485662    -0.15600
H895        H  0.14342234  0.54987631  0.85892314     0.07000
H896        H  0.12510793  0.70532138  0.88345027     0.07000
O897        O  0.94374843  0.48942733  0.71526019    -0.69100
O898        O  0.02636526  0.54140945  0.76939808    -0.69300
O899        O  0.01854756  0.48902807  0.70303987    -0.69200
O900        O  0.95159921  0.54232291  0.78133161    -0.69200
O901        O  0.95853794  0.48901470  0.82344197    -0.69100
O902        O  0.03022686  0.94905666  0.73336598    -0.69200
O903        O  0.03258201  0.48490138  0.80757429    -0.69100
O904        O  0.95499716  0.94862328  0.74639913    -0.69300
V905        V  0.98518567  0.51454800  0.74303014     1.35200
V906        V  0.99604899  0.97553818  0.77204066     1.35200
C907        C  0.93831449  0.96691095  0.71711569     0.80100
C908        C  0.04340349  0.52189485  0.79789486     0.80200
C909        C  0.03951719  0.96825495  0.70021185     0.80100
C910        C  0.94400223  0.52503368  0.81592127     0.80000
O911        O  0.02764500  0.76583854  0.70820960    -0.69100
O912        O  0.95183132  0.69811885  0.75930381    -0.69300
O913        O  0.95356235  0.75572220  0.69786846    -0.69200
O914        O  0.02595037  0.70851017  0.76972920    -0.69200
O915        O  0.01352688  0.75798814  0.81580313    -0.69100
O916        O  0.94331334  0.80738620  0.74221967    -0.69200
O917        O  0.93998700  0.74900653  0.80411534    -0.69100
O918        O  0.01767233  0.81551279  0.75476739    -0.69300
V919        V  0.98949685  0.73302404  0.73469140     1.35200
V920        V  0.97868826  0.78161585  0.77820415     1.35200
C921        C  0.03624896  0.80170221  0.72352994     0.80100
C922        C  0.93340113  0.71174210  0.79067945     0.80200
C923        C  0.93641104  0.78990619  0.70755026     0.80100
C924        C  0.03200376  0.72507493  0.80499886     0.80000
C925        C  0.11176344  0.84776274  0.64806031     0.05000
C926        C  0.11379309  0.89299797  0.65041058     0.04900
C927        C  0.13965098  0.91452515  0.62463508    -0.15600
C928        C  0.16438353  0.89215618  0.59726532     0.05000
C929        C  0.16430378  0.84669351  0.59722081     0.04900
C930        C  0.13737404  0.82548413  0.62202684    -0.15600
H931        H  0.13623469  0.79088577  0.62125543     0.07000
H932        H  0.14087568  0.94904864  0.62664771     0.07000
C933        C  0.70575975  0.73670954  0.53198085     0.89200
C934        C  0.68397466  0.76574707  0.50295953    -0.51100
C935        C  0.70644851  0.78133772  0.97579392     0.12100
C936        C  0.74791640  0.77402636  0.98592720     0.23000
C937        C  0.73017463  0.70132121  0.00358313    -0.51800
C938        C  0.75472237  0.72552917  0.98085190     0.12200
C939        C  0.72965916  0.76697104  0.55786890    -0.51300
C940        C  0.75219366  0.79317573  0.53446841     0.12800
H941        H  0.65233307  0.75662747  0.99481198     0.17300
H942        H  0.76746738  0.79384323  0.96706886     0.03000
H943        H  0.72998160  0.66664546  0.00272310     0.17600
H944        H  0.72816559  0.76728475  0.59154790     0.17400
C945        C  0.75698508  0.51630518  0.96428315     0.89200
C946        C  0.73131528  0.48599883  0.94045663    -0.51100
C947        C  0.71750392  0.95818689  0.96130500     0.12100
C948        C  0.72906351  0.97005939  0.50995515     0.23000
C949        C  0.73032726  0.54305189  0.99217840    -0.51800
C950        C  0.71779062  0.52567487  0.52399505     0.12200
C951        C  0.77820190  0.48719381  0.99417460    -0.51300
C952        C  0.77269708  0.97052082  0.50971908     0.12800
H953        H  0.73204665  0.98461510  0.90070293     0.17300
H954        H  0.71598993  0.94828664  0.53299787     0.03000
H955        H  0.72953382  0.57772534  0.99141250     0.17600
H956        H  0.80855052  0.48668322  0.99580842     0.17400
C957        C  0.66805661  0.60493295  0.60203325     0.05000
C958        C  0.66852419  0.65011939  0.60613062     0.04900
C959        C  0.64281227  0.67109046  0.63280883    -0.15600
C960        C  0.61561571  0.64868879  0.65507585     0.05000
C961        C  0.61530562  0.60351499  0.65221172     0.04900
C962        C  0.64143564  0.58213642  0.62579738    -0.15600
H963        H  0.64141215  0.54760128  0.62487168     0.07000
H964        H  0.64345314  0.70567550  0.63545620     0.07000
C965        C  0.65251923  0.88807967  0.89157304     0.05000
C966        C  0.64223259  0.84773888  0.90769162     0.04900
C967        C  0.61380524  0.82397462  0.88867897    -0.15600
C968        C  0.59510402  0.83943785  0.85383967     0.05000
C969        C  0.60472794  0.87998940  0.83795240     0.04900
C970        C  0.63355890  0.90344483  0.85656549    -0.15600
H971        H  0.64113290  0.93422128  0.84374630     0.07000
H972        H  0.60578552  0.79346375  0.90173069     0.07000
C973        C  0.37942008  0.85728396  0.86776214     0.05000
C974        C  0.38154947  0.90260493  0.87130291     0.04900
C975        C  0.35879450  0.92396786  0.90096293    -0.15600
C976        C  0.33165116  0.90207073  0.92462178     0.05000
C977        C  0.32718410  0.85792025  0.91871694     0.04900
C978        C  0.35138593  0.83597294  0.89113904    -0.15600
H979        H  0.34686780  0.80210144  0.88753542     0.07000
H980        H  0.36122281  0.95831976  0.90458902     0.07000
C981        C  0.25999010  0.98482831  0.96713356     0.89200
C982        C  0.28284913  0.49797487  0.99593383    -0.51100
C983        C  0.25691195  0.53986899  0.51592506     0.12100
C984        C  0.21625735  0.52571543  0.50952400     0.23000
C985        C  0.23231375  0.95899935  0.99367057    -0.51800
C986        C  0.20644337  0.97513677  0.52028840     0.12200
C987        C  0.23560133  0.01540383  0.94247327    -0.51700
C988        C  0.21587467  0.53097503  0.96553896     0.12800
H989        H  0.31309022  0.49772419  0.99928320     0.17300
H990        H  0.19527022  0.54521542  0.52738087     0.03000
H991        H  0.23036715  0.91811531  0.49163233     0.17600
H992        H  0.24215280  0.51423690  0.90602238     0.17400
C993        C  0.31112661  0.65476920  0.59538082     0.05000
C994        C  0.31695449  0.61180012  0.58241866     0.04900
C995        C  0.34048413  0.58480171  0.60498776    -0.15600
C996        C  0.35959900  0.59916618  0.63995942     0.05000
C997        C  0.35398133  0.64221644  0.65317981     0.04900
C998        C  0.32928759  0.66902284  0.63124676    -0.15600
H999        H  0.32484332  0.70171085  0.64174361     0.07000
H1000       H  0.34456585  0.55202049  0.59447497     0.07000
C1001       C  0.21539000  0.72743432  0.96465867     0.89200
C1002       C  0.24231473  0.76171572  0.94870257    -0.51100
C1003       C  0.25888140  0.78527809  0.97929365     0.12100
C1004       C  0.24702442  0.76095535  0.51387537     0.23000
C1005       C  0.23941904  0.69350385  0.47649930    -0.51800
C1006       C  0.25696328  0.71279290  0.50877415     0.12200
C1007       C  0.18624648  0.74204525  0.48560371    -0.51300
C1008       C  0.20347850  0.76279061  0.51738816     0.12800
H1009       H  0.24893534  0.76515298  0.91584887     0.17300
H1010       H  0.26181755  0.77684280  0.53975154     0.03000
H1011       H  0.24434579  0.66020269  0.46804686     0.17600
H1012       H  0.15595298  0.74059749  0.48306425     0.17400
O1013       O  0.45036478  0.97587124  0.67571680    -0.69100
O1014       O  0.52569691  0.92955535  0.74675530    -0.69300
O1015       O  0.44981278  0.92719570  0.74459938    -0.69200
O1016       O  0.52577404  0.97698699  0.67705534    -0.69200
O1017       O  0.53103742  0.53916945  0.72444782    -0.69100
O1018       O  0.44857936  0.98316344  0.78502822    -0.69200
O1019       O  0.52349359  0.98815268  0.78340361    -0.69100
O1020       O  0.45730299  0.55263261  0.73176668    -0.69300
V1021       V  0.48782697  0.95340320  0.71182508     1.35200
V1022       V  0.49149801  0.51294146  0.75473289     1.35200
C1023       C  0.44091211  0.54355739  0.69840818     0.80100
C1024       C  0.53764273  0.95166245  0.77701043     0.80200
C1025       C  0.43675667  0.94609427  0.77659161     0.80100
C1026       C  0.53963585  0.52564599  0.68833445     0.80000
O1027       O  0.51850248  0.72978353  0.70383668    -0.69100
O1028       O  0.44763832  0.78802176  0.77446412    -0.69300
O1029       O  0.52152197  0.77721517  0.77363448    -0.69200
O1030       O  0.44369949  0.74160537  0.70407324    -0.69200
O1031       O  0.43547277  0.68481892  0.74157602    -0.69100
O1032       O  0.51669220  0.71926535  0.81006249    -0.69200
O1033       O  0.44174753  0.73061602  0.81163869    -0.69100
O1034       O  0.50993392  0.67190784  0.73969708    -0.69300
V1035       V  0.48273339  0.75794881  0.73965332     1.35200
V1036       V  0.47620144  0.70271406  0.77504506     1.35200
C1037       C  0.52579197  0.69065280  0.70966919     0.80100
C1038       C  0.43297485  0.76907284  0.80532334     0.80200
C1039       C  0.53193210  0.75523160  0.80410366     0.80100
C1040       C  0.42595021  0.70765427  0.71109255     0.80000
C1041       C  0.87751232  0.60742063  0.87075455     0.05000
C1042       C  0.87614111  0.65270541  0.87508429     0.04900
C1043       C  0.85127609  0.67144874  0.90439634    -0.15600
C1044       C  0.82654123  0.64677077  0.92874714     0.05000
C1045       C  0.82775095  0.60168431  0.92443644     0.04900
C1046       C  0.85257369  0.58277014  0.89512630    -0.15600
H1047       H  0.85253816  0.54832855  0.89183774     0.07000
H1048       H  0.85177387  0.70581541  0.90847465     0.07000
C1049       C  0.87009166  0.91132286  0.64336263     0.05000
C1050       C  0.86756745  0.86769892  0.65497433     0.04900
C1051       C  0.83915717  0.84246462  0.63798345    -0.15600
C1052       C  0.81390420  0.85889538  0.60911350     0.05000
C1053       C  0.81629727  0.90226105  0.59728851     0.04900
C1054       C  0.84483649  0.92774243  0.61428484    -0.15600
H1055       H  0.84678066  0.96113189  0.60584761     0.07000
H1056       H  0.83670778  0.80931889  0.64719397     0.07000
C1057       C  0.28588228  0.68533170  0.57343513    -0.13800
C1058       C  0.28575027  0.68858842  0.53180617    -0.28900
H1059       H  0.26718449  0.70565371  0.59203217     0.15300
H1060       H  0.30501189  0.66903542  0.51322871     0.15800
C1061       C  0.37484612  0.66034640  0.68841352    -0.13800
C1062       C  0.39612190  0.69502611  0.68261071    -0.28900
H1063       H  0.37758057  0.64165707  0.71653982     0.15300
H1064       H  0.39397368  0.71282183  0.65383477     0.15800
C1065       C  0.41725311  0.57617449  0.67856802    -0.13800
C1066       C  0.38436394  0.56709198  0.66082749    -0.28900
H1067       H  0.42800259  0.60840002  0.67875396     0.15300
H1068       H  0.37585359  0.53380853  0.65965016     0.15800
C1069       C  0.26729987  0.57270453  0.54707122    -0.13800
C1070       C  0.30030645  0.59289456  0.54504720    -0.28900
H1071       H  0.24893461  0.57743576  0.57405342     0.15300
H1072       H  0.31877510  0.58862256  0.51812966     0.15800
C1073       C  0.28911541  0.81691608  0.97044923    -0.13800
C1074       C  0.29293554  0.83543050  0.93295160    -0.28900
H1075       H  0.30968747  0.82302102  0.99419568     0.15300
H1076       H  0.27202334  0.83034076  0.90941992     0.15800
C1077       C  0.30654696  0.92624470  0.95332671    -0.13800
C1078       C  0.28570892  0.95860724  0.93926493    -0.28900
H1079       H  0.30383057  0.91616213  0.98548548     0.15300
H1080       H  0.28724598  0.96617918  0.90631768     0.15800
C1081       C  0.40876215  0.92418429  0.80301392    -0.13800
C1082       C  0.40672048  0.92921524  0.84459354    -0.28900
H1083       H  0.39177627  0.89994385  0.78824306     0.15300
H1084       H  0.42301956  0.95408438  0.85935530     0.15800
C1085       C  0.40663107  0.83286616  0.84035321    -0.13800
C1086       C  0.40571840  0.79049185  0.83332052    -0.28900
H1087       H  0.42974623  0.84999381  0.82601117     0.15300
H1088       H  0.38568990  0.76996431  0.84881351     0.15800
C1089       C  0.58375402  0.89823105  0.80240324    -0.13800
C1090       C  0.56638097  0.93621450  0.80602488    -0.28900
H1091       H  0.57780722  0.87773265  0.77595229     0.15300
H1092       H  0.57139933  0.95584869  0.83335752     0.15800
C1093       C  0.56345167  0.81560012  0.83529030    -0.13800
C1094       C  0.56078617  0.77278725  0.83178364    -0.28900
H1095       H  0.54186464  0.83475132  0.82078985     0.15300
H1096       H  0.58040697  0.75147693  0.84676687     0.15800
C1097       C  0.58840473  0.67437970  0.68079706    -0.13800
C1098       C  0.55148722  0.66651187  0.68196441    -0.28900
H1099       H  0.59886535  0.70192494  0.69768524     0.15300
H1100       H  0.54008901  0.63988940  0.66462224     0.15800
C1101       C  0.56967139  0.54564291  0.66354386    -0.13800
C1102       C  0.58920511  0.57859455  0.67856868    -0.28900
H1103       H  0.57435510  0.53470290  0.63172364     0.15300
H1104       H  0.58327743  0.59028165  0.70992035     0.15800
C1105       C  0.68934346  0.92531358  0.94803677    -0.13800
C1106       C  0.68378785  0.91480328  0.90760450    -0.28900
H1107       H  0.67173770  0.91117120  0.97203591     0.15300
H1108       H  0.70087234  0.92943889  0.88358035     0.15800
C1109       C  0.69189344  0.54246335  0.55743766    -0.13800
C1110       C  0.69498443  0.58282630  0.57245669    -0.28900
H1111       H  0.67001287  0.52142804  0.56862828     0.15300
H1112       H  0.71846436  0.60145439  0.56122735     0.15800
C1113       C  0.79845660  0.94852792  0.53876738    -0.13800
C1114       C  0.78802090  0.92184099  0.56926906    -0.28900
H1115       H  0.82818993  0.95504865  0.53474513     0.15300
H1116       H  0.75889188  0.91267742  0.57281141     0.15800
C1117       C  0.80431760  0.57368599  0.95155236    -0.13800
C1118       C  0.78212156  0.54297210  0.93625048    -0.28900
H1119       H  0.80425795  0.57935275  0.98491027     0.15300
H1120       H  0.78119969  0.53804852  0.90279506     0.15800
C1121       C  0.68073273  0.70809121  0.55733764    -0.13800
C1122       C  0.69435257  0.67710372  0.58152436    -0.28900
H1123       H  0.65053351  0.71225712  0.55534098     0.15300
H1124       H  0.72435845  0.67130764  0.58269435     0.15800
C1125       C  0.69382118  0.81129673  0.94325679    -0.13800
C1126       C  0.65929474  0.82864781  0.94454439    -0.28900
H1127       H  0.71248510  0.81743482  0.91693597     0.15300
H1128       H  0.64059649  0.82274200  0.97084049     0.15800
C1129       C  0.77845858  0.82517699  0.55174079    -0.13800
C1130       C  0.78552934  0.82908246  0.59259789    -0.28900
H1131       H  0.79352816  0.84510609  0.52967367     0.15300
H1132       H  0.77309162  0.80714785  0.61469669     0.15800
C1133       C  0.78451105  0.70727851  0.95287099    -0.13800
C1134       C  0.79906458  0.66777657  0.95822485    -0.28900
H1135       H  0.79393746  0.72694977  0.92718541     0.15300
H1136       H  0.78929987  0.64949436  0.98466519     0.15800
C1137       C  0.18978648  0.91606458  0.56827845    -0.13800
C1138       C  0.18133374  0.95436556  0.55154905    -0.28900
H1139       H  0.21613397  0.90114731  0.55913507     0.15300
H1140       H  0.15576723  0.97115539  0.56071126     0.15800
C1141       C  0.18005930  0.78592909  0.54931886    -0.13800
C1142       C  0.19112173  0.82084370  0.57035138    -0.28900
H1143       H  0.15084247  0.77658734  0.55188178     0.15300
H1144       H  0.21959976  0.83183983  0.56570076     0.15800
C1145       C  0.06790887  0.82669456  0.70662215    -0.13800
C1146       C  0.08057204  0.82238493  0.66713039    -0.28900
H1147       H  0.08138856  0.84805104  0.72804758     0.15300
H1148       H  0.06802220  0.79812600  0.64754213     0.15800
C1149       C  0.90545448  0.68406270  0.81124839    -0.13800
C1150       C  0.90230385  0.68205671  0.85291041    -0.28900
H1151       H  0.88901992  0.66298596  0.79190420     0.15300
H1152       H  0.91820940  0.70422602  0.87173848     0.15800
C1153       C  0.90923180  0.80860539  0.67849078    -0.13800
C1154       C  0.89430372  0.84778568  0.68451176    -0.28900
H1155       H  0.90249184  0.79037761  0.65078105     0.15300
H1156       H  0.90286492  0.86556822  0.71157064     0.15800
C1157       C  0.06558153  0.94826208  0.66924445    -0.13800
C1158       C  0.09020655  0.91807718  0.68050889    -0.28900
H1159       H  0.06384283  0.95753187  0.63684810     0.15300
H1160       H  0.09333895  0.91190506  0.71331031     0.15800
C1161       C  0.90479086  0.94664094  0.69981418    -0.13800
C1162       C  0.90012221  0.93990459  0.65897304    -0.28900
H1163       H  0.88517979  0.93259137  0.72192101     0.15300
H1164       H  0.91904194  0.95464192  0.63655087     0.15800
C1165       C  0.91840694  0.54581943  0.84682556    -0.13800
C1166       C  0.90485606  0.58568703  0.84147778    -0.28900
H1167       H  0.91107584  0.52788872  0.87453550     0.15300
H1168       H  0.91498212  0.60280269  0.81454244     0.15800
C1169       C  0.19689897  0.70294895  0.92981685    -0.13800
C1170       C  0.17377294  0.67007144  0.93704676    -0.28900
H1171       H  0.20178028  0.71305106  0.89790968     0.15300
H1172       H  0.17001462  0.65821189  0.96849843     0.15800
C1173       C  0.18817988  0.56302798  0.95116995    -0.13800
C1174       C  0.19059546  0.58056973  0.91324913    -0.28900
H1175       H  0.16420355  0.57049874  0.97129320     0.15300
H1176       H  0.21435980  0.57416290  0.89265916     0.15800
C1177       C  0.05943092  0.70597533  0.83330104    -0.13800
C1178       C  0.08332802  0.67550059  0.81965423    -0.28900
H1179       H  0.05885781  0.71565482  0.86581932     0.15300
H1180       H  0.08361488  0.66701598  0.78686604     0.15800
C1181       C  0.08600624  0.58179036  0.81335375    -0.13800
C1182       C  0.07404389  0.54193684  0.82122552    -0.28900
H1183       H  0.07372532  0.59832749  0.78741072     0.15300
H1184       H  0.08452651  0.52462795  0.84777627     0.15800
loop_ 
_geom_bond_atom_site_label_1 
_geom_bond_atom_site_label_2 
_geom_bond_distance 
_geom_bond_site_symmetry_2 
_ccdc_geom_bond_type 
C1            C2   1.415       .  A
C1            C6   1.407       .  A
C1          C293   1.485       .  S
C2            C3   1.402       .  A
C2          C290   1.482       .  S
C3            C4   1.402       .  A
C3            H8   1.084       .  S
C4            C5   1.407       .  A
C4          C282   1.470       .  S
C5            C6   1.398       .  A
C5          C286   1.477       .  S
C6            H7   1.083       .  S
O9           V17   1.911   1_565  S
O9          C611   1.265       .  A
O10          V17   1.897   1_455  S
O10          C20   1.266       .  A
O11          V17   1.906   1_465  S
O11         C613   1.265       .  A
O12          V17   1.906       .  S
O12          C22   1.266       .  A
O13         V610   1.891       .  S
O13          C22   1.262   1_565  A
O14          V18   1.899   1_455  S
O14          C21   1.264       .  A
O15         V610   1.891   1_455  S
O15          C20   1.260   1_565  A
O16          V18   1.893       .  S
O16          C19   1.262       .  A
V17         V610   2.089   1_545  T
V18         O605   1.897       .  S
V18         O607   1.898   1_655  S
V18         V609   2.089       .  T
C19         C273   1.464       .  S
C19         O601   1.264       .  A
C20         C294   1.468       .  S
C21         C269   1.454       .  S
C21         O603   1.259       .  A
C22         C277   1.471       .  S
O23          V31   1.896   1_455  S
O23          C33   1.264       .  A
O24          V31   1.898       .  S
O24          C34   1.262       .  A
O25          V31   1.893       .  S
O25          C35   1.261       .  A
O26          V31   1.896   1_455  S
O26          C36   1.266       .  A
O27          V32   1.900   1_455  S
O27          C36   1.263       .  A
O28          V32   1.904       .  S
O28          C35   1.266       .  A
O29          V32   1.895       .  S
O29          C34   1.264       .  A
O30          V32   1.900   1_455  S
O30          C33   1.263       .  A
V31          V32   2.089       .  T
C33         C257   1.471       .  S
C34         C261   1.466       .  S
C35         C265   1.470       .  S
C36         C289   1.475       .  S
C37          C38   1.422       .  A
C37          C42   1.397       .  A
C37         C258   1.488       .  S
C38          C39   1.404       .  A
C38         C270   1.478       .  S
C39          C40   1.400       .  A
C39          H44   1.085       .  S
C40          C41   1.416       .  A
C40         C249   1.486       .  S
C41          C42   1.398       .  A
C41         C254   1.470       .  S
C42          H43   1.086       .  S
C45          C46   1.534   1_554  S
C45          C51   1.536       .  S
C45         C233   1.520       .  S
C45         C345   1.532   1_554  S
C46         H349   1.083       .  S
C46         C343   1.371       .  D
C47          C48   1.536       .  S
C47         C342   1.371       .  D
C47         C237   1.486       .  S
C48          C50   1.541       .  S
C48         C348   1.542       .  S
C48          H54   1.111       .  S
C49         C341   1.528       .  S
C49          H55   1.085       .  S
C49          C50   1.367       .  D
C50         C245   1.487       .  S
C51          H56   1.083       .  S
C51          C52   1.376       .  D
C52         C344   1.540   1_554  S
C52         C241   1.494       .  S
H53         C342   1.085       .  S
C57          C58   1.523   1_545  S
C57          C63   1.526   1_545  S
C57          C61   1.527       .  S
C57         C230   1.506       .  S
C58         H657   1.083       .  S
C58         C651   1.372       .  D
C59         C356   1.552       .  S
C59         C650   1.376       .  D
C59         C217   1.503       .  S
C60          C64   1.535       .  S
C60         C355   1.537   1_554  S
C60         C654   1.539       .  S
C60          H66   1.112       .  S
C61          H67   1.085       .  S
C61         C358   1.367       .  D
C62         C652   1.555   1_545  S
C62         C357   1.371   1_554  D
C62         C221   1.504       .  S
C63          H68   1.087   1_565  S
C63         C952   1.363       .  D
C64         C951   1.372   1_554  D
C64         C225   1.482       .  S
H65         C650   1.083       .  S
C69          C70   1.423       .  A
C69          C74   1.412       .  A
C69         C222   1.503       .  S
C70          C71   1.406       .  A
C70         C234   1.489       .  S
C71          C72   1.404       .  A
C71          H76   1.084       .  S
C72          C73   1.416       .  A
C72         C209   1.498       .  S
C73          C74   1.411       .  A
C73         C214   1.487       .  S
C74          H75   1.081       .  S
C77          C78   1.414       .  A
C77          C82   1.407       .  A
C77         C218   1.489       .  S
C78          C79   1.405       .  A
C78         C238   1.474       .  S
C79          C80   1.406       .  A
C79          H84   1.084       .  S
C80          C81   1.418       .  A
C80         C205   1.489       .  S
C81          C82   1.405       .  A
C81         C201   1.490       .  S
C82          H83   1.085       .  S
C85          C86   1.423       .  A
C85          C90   1.413       .  A
C85         C197   1.497       .  S
C86          C87   1.400       .  A
C86         C194   1.489       .  S
C87          C88   1.402       .  A
C87          H92   1.085       .  S
C88          C89   1.413       .  A
C88         C189   1.488       .  S
C89          C90   1.409       .  A
C89         C186   1.485       .  S
C90          H91   1.081       .  S
C93          C99   1.531       .  S
C93          C97   1.533       .  S
C93         C190   1.513       .  S
C93         C686   1.533       .  S
C94         C685   1.531   1_545  S
C94         H101   1.085       .  S
C94         C391   1.372       .  D
C95          C96   1.539       .  S
C95         C390   1.371   1_554  D
C95         C181   1.483       .  S
C96         C396   1.543   1_554  S
C96         C690   1.542   1_545  S
C96         H102   1.111       .  S
C97         H399   1.084       .  S
C97         C394   1.370       .  D
C98         C688   1.543       .  S
C98         C393   1.358   1_554  D
C98         C250   1.470       .  S
C99         H696   1.086       .  S
C99         C692   1.370       .  D
C100        C392   1.547       .  S
C100        C691   1.364       .  D
C100        C285   1.487       .  S
H103        C393   1.087       .  S
H104        C691   1.086       .  S
C105        C106   1.411       .  A
C105        C110   1.414       .  A
C105        C169   1.497       .  S
C106        C107   1.394       .  A
C106        C182   1.476       .  S
C107        C108   1.405       .  A
C107        H112   1.082       .  S
C108        C109   1.424       .  A
C108        C178   1.502       .  S
C109        C110   1.414       .  A
C109        C173   1.492       .  S
C110        H111   1.083       .  S
C113        C114   1.531       .  S
C113        C281   1.503       .  S
C113        C415   1.525       .  S
C113        C413   1.532       .  S
C114        H121   1.086       .  S
C114        C115   1.369       .  D
C115        C412   1.549       .  S
C115        C185   1.487       .  S
C116        C120   1.535       .  S
C116        C118   1.540       .  S
C116        C411   1.538   1_554  S
C116        H122   1.111       .  S
C117        C409   1.540   1_554  S
C117        H123   1.084       .  S
C117        C118   1.376       .  D
C118        C170   1.496       .  S
C119        C409   1.529   1_554  S
C119        H124   1.086       .  S
C119        C120   1.365       .  D
C120        C253   1.479       .  S
O125        V133   1.905       .  S
O125        C727   1.265       .  A
O126        V133   1.907       .  S
O126        C136   1.265       .  A
O127        V133   1.902       .  S
O127        C137   1.264       .  A
O128        V133   1.900       .  S
O128        C730   1.262       .  A
O129        V134   1.900       .  S
O129        C138   1.266       .  A
O130        V726   1.901       .  S
O130        C137   1.265       .  A
O131        V726   1.898       .  S
O131        C136   1.264       .  A
O132        V134   1.912       .  S
O132        C135   1.266       .  A
V133        V726   2.088       .  T
V134        O722   1.909   1_545  S
V134        O723   1.899   1_545  S
V134        V725   2.088   1_545  T
C135        C177   1.476       .  S
C135        O717   1.263   1_545  A
C136        C202   1.478       .  S
C137        C193   1.476       .  S
C138        C213   1.477       .  S
C138        O720   1.263   1_545  A
O139        V147   1.904       .  S
O139        C149   1.264       .  A
O140        V147   1.892       .  S
O140        C150   1.263       .  A
O141        V147   1.901       .  S
O141        C151   1.266       .  A
O142        V147   1.909       .  S
O142        C152   1.265       .  A
O143        V148   1.897       .  S
O143        C152   1.262       .  A
O144        V148   1.902       .  S
O144        C151   1.263       .  A
O145        V148   1.913       .  S
O145        C150   1.266       .  A
O146        V148   1.907       .  S
O146        C149   1.267       .  A
V147        V148   2.088       .  T
C149        C210   1.483       .  S
C150        C198   1.478       .  S
C151        C206   1.473       .  S
C152        C174   1.469       .  S
C153        C154   1.421       .  A
C153        C158   1.404       .  A
C153        C278   1.497       .  S
C154        C155   1.405       .  A
C154        C262   1.479       .  S
C155        C156   1.403       .  A
C155        H160   1.084       .  S
C156        C157   1.413       .  A
C156        C246   1.490       .  S
C157        C158   1.399       .  A
C157        C229   1.480       .  S
C158        H159   1.082       .  S
C161        C162   1.413       .  A
C161        C166   1.398       .  A
C161        C274   1.482       .  S
C162        C163   1.401       .  A
C162        C266   1.479       .  S
C163        C164   1.403       .  A
C163        H168   1.085       .  S
C164        C165   1.417       .  A
C164        C242   1.485       .  S
C165        C166   1.403       .  A
C165        C226   1.471       .  S
C166        H167   1.085       .  S
C169        H171   1.081       .  S
C169        C170   1.346       .  D
C170        H172   1.085       .  S
C173        H175   1.087       .  S
C173        C174   1.344       .  D
C174        H176   1.085       .  S
C177        H179   1.084       .  S
C177        C178   1.349       .  D
C178        H180   1.086       .  S
C181        H183   1.086       .  S
C181        C182   1.341       .  D
C182        H184   1.084       .  S
C185        H187   1.086       .  S
C185        C186   1.347       .  D
C186        H188   1.086       .  S
C189        H191   1.086       .  S
C189        C190   1.346       .  D
C190        H192   1.087       .  S
C193        H195   1.087       .  S
C193        C194   1.345       .  D
C194        H196   1.087       .  S
C197        H199   1.085       .  S
C197        C198   1.348       .  D
C198        H200   1.083       .  S
C201        H203   1.087       .  S
C201        C202   1.347       .  D
C202        H204   1.086       .  S
C205        H207   1.085       .  S
C205        C206   1.344       .  D
C206        H208   1.085       .  S
C209        H211   1.083       .  S
C209        C210   1.346       .  D
C210        H212   1.086       .  S
C213        H215   1.086       .  S
C213        C214   1.342       .  D
C214        H216   1.085       .  S
C217        H219   1.086       .  S
C217        C218   1.351       .  D
C218        H220   1.082       .  S
C221        H223   1.084       .  S
C221        C222   1.358       .  D
C222        H224   1.080       .  S
C225        H227   1.087       .  S
C225        C226   1.339       .  D
C226        H228   1.085       .  S
C229        H231   1.086       .  S
C229        C230   1.342       .  D
C230        H232   1.087       .  S
C233        H235   1.087       .  S
C233        C234   1.347       .  D
C234        H236   1.086       .  S
C237        H239   1.086       .  S
C237        C238   1.342       .  D
C238        H240   1.085       .  S
C241        H243   1.085       .  S
C241        C242   1.345       .  D
C242        H244   1.083       .  S
C245        H247   1.085       .  S
C245        C246   1.348       .  D
C246        H248   1.081       .  S
C249        H251   1.087       .  S
C249        C250   1.338       .  D
C250        H252   1.084       .  S
C253        H255   1.086       .  S
C253        C254   1.341       .  D
C254        H256   1.086       .  S
C257        H259   1.085       .  S
C257        C258   1.343       .  D
C258        H260   1.088       .  S
C261        H263   1.085       .  S
C261        C262   1.339       .  D
C262        H264   1.088       .  S
C265        H267   1.087       .  S
C265        C266   1.339       .  D
C266        H268   1.084       .  S
C269        H271   1.085       .  S
C269        C270   1.338       .  D
C270        H272   1.088       .  S
C273        H275   1.085       .  S
C273        C274   1.342       .  D
C274        H276   1.087       .  S
C277        H279   1.085       .  S
C277        C278   1.346       .  D
C278        H280   1.080       .  S
C281        H283   1.087       .  S
C281        C282   1.338       .  D
C282        H284   1.087       .  S
C285        H287   1.086       .  S
C285        C286   1.347       .  D
C286        H288   1.086       .  S
C289        H291   1.087       .  S
C289        C290   1.341       .  D
C290        H292   1.085       .  S
C293        H295   1.083       .  S
C293        C294   1.339       .  D
C294        H296   1.086       .  S
C297        C298   1.415       .  A
C297        C302   1.406       .  A
C297        C589   1.503       .  S
C298        C299   1.410       .  A
C298        C586   1.479       .  S
C299        C300   1.410       .  A
C299        H304   1.084       .  S
C300        C301   1.409       .  A
C300        C578   1.492       .  S
C301        C302   1.402       .  A
C301        C582   1.472       .  S
C302        H303   1.083       .  S
O305        V313   1.916       .  S
O305        C907   1.267   1_545  A
O306        V313   1.916   1_455  S
O306        C316   1.269       .  A
O307        V313   1.905   1_455  S
O307        C909   1.263   1_545  A
O308        V313   1.902       .  S
O308        C318   1.266       .  A
O309        V906   1.904   1_545  S
O309        C318   1.264       .  A
O310        V314   1.906   1_455  S
O310        C317   1.266       .  A
O311        V906   1.892   1_445  S
O311        C316   1.261       .  A
O312        V314   1.893       .  S
O312        C315   1.262       .  A
V313        V906   2.087   1_545  T
V314        O901   1.904       .  S
V314        O903   1.897   1_655  S
V314        V905   2.087       .  T
C315        C569   1.472       .  S
C315        O897   1.266       .  A
C316        C590   1.479       .  S
C317        C565   1.472       .  S
C317        O899   1.263       .  A
C318        C573   1.480       .  S
O319        V327   1.891   1_455  S
O319        C329   1.263       .  A
O320        V327   1.898       .  S
O320        C330   1.262       .  A
O321        V327   1.898       .  S
O321        C331   1.262       .  A
O322        V327   1.898   1_455  S
O322        C332   1.266       .  A
O323        V328   1.901   1_455  S
O323        C332   1.262       .  A
O324        V328   1.905       .  S
O324        C331   1.267       .  A
O325        V328   1.902       .  S
O325        C330   1.265       .  A
O326        V328   1.906   1_455  S
O326        C329   1.265       .  A
V327        V328   2.088       .  T
C329        C553   1.473       .  S
C330        C557   1.470       .  S
C331        C561   1.475       .  S
C332        C585   1.475       .  S
C333        C334   1.425       .  A
C333        C338   1.404       .  A
C333        C554   1.488       .  S
C334        C335   1.409       .  A
C334        C566   1.491       .  S
C335        C336   1.410       .  A
C335        H340   1.084       .  S
C336        C337   1.409       .  A
C336        C545   1.486       .  S
C337        C338   1.398       .  A
C337        C550   1.482       .  S
C338        H339   1.085       .  S
C341        C342   1.534       .  S
C341        C347   1.534       .  S
C341        C529   1.514       .  S
C343        C344   1.538       .  S
C343        C533   1.492       .  S
C344        C346   1.542       .  S
C344        H350   1.111       .  S
C345        H351   1.085       .  S
C345        C346   1.368       .  D
C346        C541   1.488       .  S
C347        H352   1.083       .  S
C347        C348   1.374       .  D
C348        C537   1.491       .  S
C353        C354   1.528   1_545  S
C353        C359   1.524   1_545  S
C353        C357   1.531       .  S
C353        C526   1.515       .  S
C354        H953   1.082       .  S
C354        C947   1.374       .  D
C355        C946   1.371       .  D
C355        C513   1.486       .  S
C356        C360   1.553       .  S
C356        C950   1.550       .  S
C356        H362   1.109       .  S
C357        H363   1.083       .  S
C358        C948   1.548   1_545  S
C358        C517   1.491       .  S
C359        H364   1.087       .  S
C359        C656   1.361   1_556  D
C360        C655   1.363       .  D
C360        C521   1.488       .  S
H361        C946   1.085       .  S
C365        C366   1.424       .  A
C365        C370   1.414       .  A
C365        C518   1.498       .  S
C366        C367   1.400       .  A
C366        C530   1.488       .  S
C367        C368   1.398       .  A
C367        H372   1.084       .  S
C368        C369   1.410       .  A
C368        C505   1.484       .  S
C369        C370   1.406       .  A
C369        C510   1.484       .  S
C370        H371   1.081       .  S
C373        C374   1.411       .  A
C373        C378   1.402       .  A
C373        C514   1.473       .  S
C374        C375   1.401       .  A
C374        C534   1.479       .  S
C375        C376   1.405       .  A
C375        H380   1.084       .  S
C376        C377   1.416       .  A
C376        C501   1.478       .  S
C377        C378   1.402       .  A
C377        C497   1.489       .  S
C378        H379   1.085       .  S
C381        C382   1.418       .  A
C381        C386   1.404       .  A
C381        C493   1.481       .  S
C382        C383   1.396       .  A
C382        C490   1.484       .  S
C383        C384   1.403       .  A
C383        H388   1.085       .  S
C384        C385   1.410       .  A
C384        C485   1.468       .  S
C385        C386   1.395       .  A
C385        C482   1.479       .  S
C386        H387   1.084       .  S
C389        C982   1.528       .  S
C389        C395   1.527       .  S
C389        C393   1.528       .  S
C389        C486   1.497       .  S
C390        C981   1.532   1_545  S
C390        H397   1.085   1_556  S
C391        C392   1.545       .  S
C391        C477   1.489       .  S
C392        C986   1.545   1_545  S
C392        H398   1.111       .  S
C394        C984   1.539       .  S
C394        C546   1.488       .  S
C395        H992   1.084       .  S
C395        C988   1.371       .  D
C396        C987   1.365       .  D
C396        C581   1.485       .  S
H400        C987   1.085       .  S
C401        C402   1.423       .  A
C401        C406   1.400       .  A
C401        C465   1.495       .  S
C402        C403   1.410       .  A
C402        C478   1.477       .  S
C403        C404   1.405       .  A
C403        H408   1.084       .  S
C404        C405   1.416       .  A
C404        C474   1.496       .  S
C405        C406   1.404       .  A
C405        C469   1.484       .  S
C406        H407   1.085       .  S
C409        C410   1.534       .  S
C409        C577   1.519       .  S
C410        H417   1.083       .  S
C410        C411   1.373       .  D
C411        C481   1.488       .  S
C412        C416   1.550       .  S
C412        C414   1.549       .  S
C412        H418   1.111       .  S
C413        H419   1.087       .  S
C413        C414   1.357       .  D
C414        C466   1.480       .  S
C415        H420   1.086       .  S
C415        C416   1.366       .  D
C416        C549   1.487       .  S
O421        V429   1.912       .  S
O421       C1023   1.267       .  A
O422        V429   1.913       .  S
O422        C432   1.267       .  A
O423        V429   1.894       .  S
O423        C433   1.262       .  A
O424        V429   1.896       .  S
O424       C1026   1.262       .  A
O425        V430   1.905       .  S
O425        C434   1.268       .  A
O426       V1022   1.907       .  S
O426        C433   1.266       .  A
O427       V1022   1.889       .  S
O427        C432   1.263       .  A
O428        V430   1.894       .  S
O428        C431   1.264       .  A
V429       V1022   2.088       .  T
V430       O1018   1.911   1_545  S
V430       O1019   1.887   1_545  S
V430       V1021   2.087   1_545  T
C431        C473   1.488       .  S
C431       O1013   1.268   1_545  A
C432        C498   1.479       .  S
C433        C489   1.470       .  S
C434        C509   1.475       .  S
C434       O1016   1.260   1_545  A
O435        V443   1.896       .  S
O435        C445   1.261       .  A
O436        V443   1.883       .  S
O436        C446   1.263       .  A
O437        V443   1.892       .  S
O437        C447   1.264       .  A
O438        V443   1.897       .  S
O438        C448   1.262       .  A
O439        V444   1.895       .  S
O439        C448   1.265       .  A
O440        V444   1.897       .  S
O440        C447   1.261       .  A
O441        V444   1.896       .  S
O441        C446   1.262       .  A
O442        V444   1.892       .  S
O442        C445   1.265       .  A
V443        V444   2.089       .  T
C445        C506   1.468       .  S
C446        C494   1.464       .  S
C447        C502   1.463       .  S
C448        C470   1.470       .  S
C449        C450   1.421       .  A
C449        C454   1.409       .  A
C449        C574   1.496       .  S
C450        C451   1.403       .  A
C450        C558   1.484       .  S
C451        C452   1.405       .  A
C451        H456   1.083       .  S
C452        C453   1.415       .  A
C452        C542   1.495       .  S
C453        C454   1.405       .  A
C453        C525   1.482       .  S
C454        H455   1.083       .  S
C457        C458   1.416       .  A
C457        C462   1.405       .  A
C457        C570   1.493       .  S
C458        C459   1.400       .  A
C458        C562   1.480       .  S
C459        C460   1.403       .  A
C459        H464   1.085       .  S
C460        C461   1.417       .  A
C460        C538   1.483       .  S
C461        C462   1.415       .  A
C461        C522   1.497       .  S
C462        H463   1.083       .  S
C465        H467   1.087       .  S
C465        C466   1.339       .  D
C466        H468   1.082       .  S
C469        H471   1.084       .  S
C469        C470   1.343       .  D
C470        H472   1.086       .  S
C473        H475   1.085       .  S
C473        C474   1.350       .  D
C474        H476   1.083       .  S
C477        H479   1.086       .  S
C477        C478   1.345       .  D
C478        H480   1.085       .  S
C481        H483   1.086       .  S
C481        C482   1.342       .  D
C482        H484   1.083       .  S
C485        H487   1.085       .  S
C485        C486   1.339       .  D
C486        H488   1.088       .  S
C489        H491   1.087       .  S
C489        C490   1.343       .  D
C490        H492   1.086       .  S
C493        H495   1.081       .  S
C493        C494   1.343       .  D
C494        H496   1.085       .  S
C497        H499   1.087       .  S
C497        C498   1.348       .  D
C498        H500   1.085       .  S
C501        H503   1.085       .  S
C501        C502   1.341       .  D
C502        H504   1.086       .  S
C505        H507   1.084       .  S
C505        C506   1.341       .  D
C506        H508   1.086       .  S
C509        H511   1.087       .  S
C509        C510   1.339       .  D
C510        H512   1.086       .  S
C513        H515   1.086       .  S
C513        C514   1.343       .  D
C514        H516   1.084       .  S
C517        H519   1.083       .  S
C517        C518   1.354       .  D
C518        H520   1.081       .  S
C521        H523   1.087       .  S
C521        C522   1.344       .  D
C522        H524   1.085       .  S
C525        H527   1.087       .  S
C525        C526   1.345       .  D
C526        H528   1.087       .  S
C529        H531   1.087       .  S
C529        C530   1.348       .  D
C530        H532   1.086       .  S
C533        H535   1.086       .  S
C533        C534   1.344       .  D
C534        H536   1.083       .  S
C537        H539   1.086       .  S
C537        C538   1.346       .  D
C538        H540   1.083       .  S
C541        H543   1.084       .  S
C541        C542   1.350       .  D
C542        H544   1.082       .  S
C545        H547   1.084       .  S
C545        C546   1.346       .  D
C546        H548   1.085       .  S
C549        H551   1.086       .  S
C549        C550   1.348       .  D
C550        H552   1.087       .  S
C553        H555   1.084       .  S
C553        C554   1.344       .  D
C554        H556   1.088       .  S
C557        H559   1.085       .  S
C557        C558   1.340       .  D
C558        H560   1.087       .  S
C561        H563   1.087       .  S
C561        C562   1.340       .  D
C562        H564   1.085       .  S
C565        H567   1.086       .  S
C565        C566   1.344       .  D
C566        H568   1.087       .  S
C569        H571   1.083       .  S
C569        C570   1.343       .  D
C570        H572   1.087       .  S
C573        H575   1.086       .  S
C573        C574   1.347       .  D
C574        H576   1.079       .  S
C577        H579   1.087       .  S
C577        C578   1.343       .  D
C578        H580   1.087       .  S
C581        H583   1.086       .  S
C581        C582   1.346       .  D
C582        H584   1.084       .  S
C585        H587   1.086       .  S
C585        C586   1.340       .  D
C586        H588   1.086       .  S
C589        H591   1.084       .  S
C589        C590   1.344       .  D
C590        H592   1.085       .  S
C593        C594   1.416       .  A
C593        C598   1.401       .  A
C593        C885   1.485       .  S
C594        C595   1.408       .  A
C594        C882   1.487       .  S
C595        C596   1.406       .  A
C595        H600   1.083       .  S
C596        C597   1.409       .  A
C596        C874   1.482       .  S
C597        C598   1.396       .  A
C597        C878   1.473       .  S
C598        H599   1.084       .  S
O601        V609   1.900       .  S
O602        V609   1.894   1_455  S
O602        C612   1.265       .  A
O603        V609   1.887   1_455  S
O604        V609   1.893       .  S
O604        C614   1.264       .  A
O605        C614   1.263       .  A
O606        V610   1.898   1_455  S
O606        C613   1.264       .  A
O607        C612   1.262       .  A
O608        V610   1.894       .  S
O608        C611   1.263       .  A
C611        C865   1.473       .  S
C612        C886   1.470       .  S
C613        C861   1.475       .  S
C614        C869   1.469       .  S
O615        V623   1.894   1_455  S
O615        C625   1.260       .  A
O616        V623   1.895       .  S
O616        C626   1.262       .  A
O617        V623   1.906       .  S
O617        C627   1.265       .  A
O618        V623   1.900   1_455  S
O618        C628   1.267       .  A
O619        V624   1.898   1_455  S
O619        C628   1.262       .  A
O620        V624   1.893       .  S
O620        C627   1.265       .  A
O621        V624   1.909       .  S
O621        C626   1.266       .  A
O622        V624   1.908   1_455  S
O622        C625   1.267       .  A
V623        V624   2.086       .  T
C625        C849   1.469       .  S
C626        C853   1.472       .  S
C627        C857   1.477       .  S
C628        C881   1.474       .  S
C629        C630   1.419       .  A
C629        C634   1.407       .  A
C629        C850   1.493       .  S
C630        C631   1.406       .  A
C630        C862   1.497       .  S
C631        C632   1.412       .  A
C631        H636   1.083       .  S
C632        C633   1.419       .  A
C632        C841   1.494       .  S
C633        C634   1.407       .  A
C633        C846   1.498       .  S
C634        H635   1.082       .  S
C637        C638   1.530   1_554  S
C637        C643   1.533       .  S
C637        C937   1.532       .  S
C637        C825   1.509       .  S
C638        H941   1.085       .  S
C638        C935   1.368       .  D
C639        C640   1.540       .  S
C639        C934   1.369       .  D
C639        C829   1.486       .  S
C640        C940   1.543       .  S
C640        C642   1.539       .  S
C640        H646   1.111       .  S
C641        C933   1.527       .  S
C641        H647   1.086       .  S
C641        C642   1.367       .  D
C642        C837   1.482       .  S
C643        H648   1.084       .  S
C643        C644   1.373       .  D
C644        C936   1.540   1_554  S
C644        C833   1.486       .  S
H645        C934   1.083       .  S
C649        C650   1.531       .  S
C649        C655   1.526       .  S
C649        C653   1.528       .  S
C649        C822   1.514       .  S
C651        C948   1.556       .  S
C651        C809   1.500       .  S
C652        C947   1.560   1_554  S
C652        C656   1.555       .  S
C652        H658   1.109       .  S
C653        H659   1.085       .  S
C653        C950   1.368       .  D
C654        C949   1.368   1_554  D
C654        C813   1.487       .  S
C655        H660   1.087       .  S
C656        C817   1.489       .  S
C661        C662   1.416       .  A
C661        C666   1.408       .  A
C661        C814   1.497       .  S
C662        C663   1.402       .  A
C662        C826   1.479       .  S
C663        C664   1.402       .  A
C663        H668   1.084       .  S
C664        C665   1.416       .  A
C664        C801   1.491       .  S
C665        C666   1.407       .  A
C665        C806   1.486       .  S
C666        H667   1.081       .  S
C669        C670   1.412       .  A
C669        C674   1.403       .  A
C669        C810   1.486       .  S
C670        C671   1.408       .  A
C670        C830   1.474       .  S
C671        C672   1.406       .  A
C671        H676   1.084       .  S
C672        C673   1.420       .  A
C672        C797   1.494       .  S
C673        C674   1.404       .  A
C673        C793   1.486       .  S
C674        H675   1.085       .  S
C677        C678   1.423       .  A
C677        C682   1.413       .  A
C677        C789   1.492       .  S
C678        C679   1.404       .  A
C678        C786   1.499       .  S
C679        C680   1.407       .  A
C679        H684   1.084       .  S
C680        C681   1.405       .  A
C680        C781   1.476       .  S
C681        C682   1.401       .  A
C681        C778   1.483       .  S
C682        H683   1.080       .  S
C685        C691   1.524   1_565  S
C685        C689   1.533       .  S
C685        C782   1.508       .  S
C686        H693   1.085       .  S
C686        C983   1.370       .  D
C687        C688   1.541       .  S
C687        C982   1.366   1_554  D
C687        C773   1.480       .  S
C688        C988   1.544   1_554  S
C688        H694   1.111       .  S
C689        H991   1.086       .  S
C689        C986   1.369       .  D
C690        C985   1.369   1_554  D
C690        C842   1.486       .  S
C692        C984   1.538       .  S
C692        C877   1.480       .  S
H695        C985   1.086       .  S
C697        C698   1.415       .  A
C697        C702   1.413       .  A
C697        C761   1.502       .  S
C698        C699   1.398       .  A
C698        C774   1.476       .  S
C699        C700   1.403       .  A
C699        H704   1.083       .  S
C700        C701   1.423       .  A
C700        C770   1.504       .  S
C701        C702   1.418       .  A
C701        C765   1.492       .  S
C702        H703   1.082       .  S
C705        C706   1.531       .  S
C705       C1007   1.528       .  S
C705       C1005   1.530       .  S
C705        C873   1.513       .  S
C706        H713   1.085       .  S
C706        C707   1.372       .  D
C707       C1004   1.551       .  S
C707        C777   1.495       .  S
C708       C1003   1.546   1_554  S
C708        C712   1.554       .  S
C708        C710   1.550       .  S
C708        H714   1.110       .  S
C709       C1001   1.535       .  S
C709        H715   1.084       .  S
C709        C710   1.375   1_556  D
C710        C762   1.502       .  S
C711       C1001   1.525       .  S
C711        H716   1.087       .  S
C711        C712   1.363   1_556  D
C712        C845   1.488       .  S
O717        V725   1.893       .  S
O718        V725   1.899       .  S
O718        C728   1.263       .  A
O719        V725   1.906       .  S
O719        C729   1.266       .  A
O720        V725   1.903       .  S
O721        V726   1.896       .  S
O721        C730   1.265       .  A
O722        C729   1.265       .  A
O723        C728   1.265       .  A
O724        V726   1.904       .  S
O724        C727   1.265       .  A
C727        C769   1.481       .  S
C728        C794   1.474       .  S
C729        C785   1.482       .  S
C730        C805   1.473       .  S
O731        V739   1.904       .  S
O731        C741   1.264       .  A
O732        V739   1.894       .  S
O732        C742   1.265       .  A
O733        V739   1.900       .  S
O733        C743   1.265       .  A
O734        V739   1.906       .  S
O734        C744   1.264       .  A
O735        V740   1.905       .  S
O735        C744   1.267       .  A
O736        V740   1.910       .  S
O736        C743   1.265       .  A
O737        V740   1.898       .  S
O737        C742   1.262       .  A
O738        V740   1.895       .  S
O738        C741   1.265       .  A
V739        V740   2.088       .  T
C741        C802   1.477       .  S
C742        C790   1.467       .  S
C743        C798   1.479       .  S
C744        C766   1.482       .  S
C745        C746   1.421       .  A
C745        C750   1.405       .  A
C745        C870   1.488       .  S
C746        C747   1.403       .  A
C746        C854   1.487       .  S
C747        C748   1.407       .  A
C747        H752   1.084       .  S
C748        C749   1.414       .  A
C748        C838   1.484       .  S
C749        C750   1.397       .  A
C749        C821   1.486       .  S
C750        H751   1.083       .  S
C753        C754   1.418       .  A
C753        C758   1.406       .  A
C753        C866   1.491       .  S
C754        C755   1.401       .  A
C754        C858   1.487       .  S
C755        C756   1.401       .  A
C755        H760   1.085       .  S
C756        C757   1.415       .  A
C756        C834   1.479       .  S
C757        C758   1.414       .  A
C757        C818   1.496       .  S
C758        H759   1.084       .  S
C761        H763   1.082       .  S
C761        C762   1.352       .  D
C762        H764   1.085       .  S
C765        H767   1.085       .  S
C765        C766   1.344       .  D
C766        H768   1.086       .  S
C769        H771   1.085       .  S
C769        C770   1.351       .  D
C770        H772   1.083       .  S
C773        H775   1.086       .  S
C773        C774   1.343       .  D
C774        H776   1.087       .  S
C777        H779   1.086       .  S
C777        C778   1.347       .  D
C778        H780   1.085       .  S
C781        H783   1.086       .  S
C781        C782   1.339       .  D
C782        H784   1.088       .  S
C785        H787   1.086       .  S
C785        C786   1.350       .  D
C786        H788   1.086       .  S
C789        H791   1.086       .  S
C789        C790   1.343       .  D
C790        H792   1.082       .  S
C793        H795   1.087       .  S
C793        C794   1.343       .  D
C794        H796   1.086       .  S
C797        H799   1.085       .  S
C797        C798   1.347       .  D
C798        H800   1.085       .  S
C801        H803   1.083       .  S
C801        C802   1.345       .  D
C802        H804   1.086       .  S
C805        H807   1.086       .  S
C805        C806   1.342       .  D
C806        H808   1.084       .  S
C809        H811   1.086       .  S
C809        C810   1.353       .  D
C810        H812   1.083       .  S
C813        H815   1.083       .  S
C813        C814   1.350       .  D
C814        H816   1.083       .  S
C817        H819   1.088       .  S
C817        C818   1.343       .  D
C818        H820   1.085       .  S
C821        H823   1.086       .  S
C821        C822   1.347       .  D
C822        H824   1.087       .  S
C825        H827   1.087       .  S
C825        C826   1.341       .  D
C826        H828   1.086       .  S
C829        H831   1.086       .  S
C829        C830   1.344       .  D
C830        H832   1.082       .  S
C833        H835   1.086       .  S
C833        C834   1.343       .  D
C834        H836   1.083       .  S
C837        H839   1.085       .  S
C837        C838   1.345       .  D
C838        H840   1.083       .  S
C841        H843   1.083       .  S
C841        C842   1.349       .  D
C842        H844   1.084       .  S
C845        H847   1.087       .  S
C845        C846   1.343       .  D
C846        H848   1.084       .  S
C849        H851   1.084       .  S
C849        C850   1.340       .  D
C850        H852   1.086       .  S
C853        H855   1.086       .  S
C853        C854   1.341       .  D
C854        H856   1.087       .  S
C857        H859   1.086       .  S
C857        C858   1.344       .  D
C858        H860   1.080       .  S
C861        H863   1.086       .  S
C861        C862   1.348       .  D
C862        H864   1.087       .  S
C865        H867   1.086       .  S
C865        C866   1.343       .  D
C866        H868   1.086       .  S
C869        H871   1.086       .  S
C869        C870   1.345       .  D
C870        H872   1.080       .  S
C873        H875   1.087       .  S
C873        C874   1.343       .  D
C874        H876   1.087       .  S
C877        H879   1.086       .  S
C877        C878   1.341       .  D
C878        H880   1.086       .  S
C881        H883   1.086       .  S
C881        C882   1.341       .  D
C882        H884   1.085       .  S
C885        H887   1.083       .  S
C885        C886   1.342       .  D
C886        H888   1.086       .  S
C889        C890   1.418       .  A
C889        C894   1.404       .  A
C889       C1181   1.498       .  S
C890        C891   1.410       .  A
C890       C1178   1.483       .  S
C891        C892   1.406       .  A
C891        H896   1.084       .  S
C892        C893   1.406       .  A
C892       C1170   1.484       .  S
C893        C894   1.400       .  A
C893       C1174   1.470       .  S
C894        H895   1.084       .  S
O897        V905   1.912       .  S
O898        V905   1.907   1_455  S
O898        C908   1.267       .  A
O899        V905   1.903   1_455  S
O900        V905   1.903       .  S
O900        C910   1.266       .  A
O901        C910   1.264       .  A
O902        V906   1.906   1_455  S
O902        C909   1.268       .  A
O903        C908   1.262       .  A
O904        V906   1.894       .  S
O904        C907   1.262       .  A
C907       C1161   1.474       .  S
C908       C1182   1.478       .  S
C909       C1157   1.482       .  S
C910       C1165   1.481       .  S
O911        V919   1.903   1_455  S
O911        C921   1.264       .  A
O912        V919   1.903       .  S
O912        C922   1.264       .  A
O913        V919   1.899       .  S
O913        C923   1.263       .  A
O914        V919   1.898   1_455  S
O914        C924   1.266       .  A
O915        V920   1.900   1_455  S
O915        C924   1.262       .  A
O916        V920   1.907       .  S
O916        C923   1.267       .  A
O917        V920   1.906       .  S
O917        C922   1.266       .  A
O918        V920   1.903   1_455  S
O918        C921   1.265       .  A
V919        V920   2.088       .  T
C921       C1145   1.476       .  S
C922       C1149   1.476       .  S
C923       C1153   1.480       .  S
C924       C1177   1.475       .  S
C925        C926   1.419       .  A
C925        C930   1.406       .  A
C925       C1146   1.497       .  S
C926        C927   1.407       .  A
C926       C1158   1.487       .  S
C927        C928   1.413       .  A
C927        H932   1.083       .  S
C928        C929   1.423       .  A
C928       C1137   1.496       .  S
C929        C930   1.410       .  A
C929       C1142   1.505       .  S
C930        H931   1.084       .  S
C933        C934   1.527       .  S
C933        C939   1.531       .  S
C933       C1121   1.503       .  S
C935        C936   1.537       .  S
C935       C1125   1.484       .  S
C936        C938   1.542       .  S
C936        H942   1.111       .  S
C937        H943   1.085       .  S
C937        C938   1.367   1_554  D
C938       C1133   1.488       .  S
C939        H944   1.083       .  S
C939        C940   1.372       .  D
C940       C1129   1.488       .  S
C945        C946   1.534       .  S
C945        C951   1.535       .  S
C945        C949   1.535       .  S
C945       C1118   1.518       .  S
C947       C1105   1.508       .  S
C948        C952   1.557       .  S
C948        H954   1.109       .  S
C949        H955   1.086       .  S
C950       C1109   1.495       .  S
C951        H956   1.085       .  S
C952       C1113   1.491       .  S
C957        C958   1.419       .  A
C957        C962   1.409       .  A
C957       C1110   1.501       .  S
C958        C959   1.401       .  A
C958       C1122   1.477       .  S
C959        C960   1.392       .  A
C959        H964   1.085       .  S
C960        C961   1.416       .  A
C960       C1097   1.491       .  S
C961        C962   1.411       .  A
C961       C1102   1.478       .  S
C962        H963   1.081       .  S
C965        C966   1.416       .  A
C965        C970   1.410       .  A
C965       C1106   1.496       .  S
C966        C967   1.408       .  A
C966       C1126   1.471       .  S
C967        C968   1.402       .  A
C967        H972   1.084       .  S
C968        C969   1.414       .  A
C968       C1093   1.489       .  S
C969        C970   1.408       .  A
C969       C1089   1.493       .  S
C970        H971   1.084       .  S
C973        C974   1.425       .  A
C973        C978   1.414       .  A
C973       C1085   1.500       .  S
C974        C975   1.404       .  A
C974       C1082   1.493       .  S
C975        C976   1.406       .  A
C975        H980   1.085       .  S
C976        C977   1.404       .  A
C976       C1077   1.475       .  S
C977        C978   1.399       .  A
C977       C1074   1.481       .  S
C978        H979   1.079       .  S
C981        C987   1.525   1_565  S
C981        C985   1.532       .  S
C981       C1078   1.505       .  S
C982        H989   1.086       .  S
C983        C984   1.537       .  S
C983       C1069   1.483       .  S
C984        H990   1.111       .  S
C986       C1138   1.490       .  S
C988       C1173   1.485       .  S
C993        C994   1.417       .  A
C993        C998   1.405       .  A
C993       C1057   1.499       .  S
C994        C995   1.403       .  A
C994       C1070   1.472       .  S
C995        C996   1.399       .  A
C995       H1000   1.086       .  S
C996        C997   1.421       .  A
C996       C1066   1.503       .  S
C997        C998   1.414       .  A
C997       C1061   1.479       .  S
C998        H999   1.084       .  S
C1001      C1002   1.530       .  S
C1001      C1169   1.516       .  S
C1002      H1009   1.085       .  S
C1002      C1003   1.370       .  D
C1003      C1073   1.494       .  S
C1004      C1008   1.556       .  S
C1004      C1006   1.553       .  S
C1004      H1010   1.110       .  S
C1005      H1011   1.087       .  S
C1005      C1006   1.362       .  D
C1006      C1058   1.484       .  S
C1007      H1012   1.087       .  S
C1007      C1008   1.365       .  D
C1008      C1141   1.492       .  S
O1013      V1021   1.920       .  S
O1014      V1021   1.923       .  S
O1014      C1024   1.271       .  A
O1015      V1021   1.897       .  S
O1015      C1025   1.263       .  A
O1016      V1021   1.897       .  S
O1017      V1022   1.895       .  S
O1017      C1026   1.265       .  A
O1018      C1025   1.266       .  A
O1019      C1024   1.259       .  A
O1020      V1022   1.898       .  S
O1020      C1023   1.263       .  A
C1023      C1065   1.476       .  S
C1024      C1090   1.480       .  S
C1025      C1081   1.475       .  S
C1026      C1101   1.470       .  S
O1027      V1035   1.910       .  S
O1027      C1037   1.266       .  A
O1028      V1035   1.903       .  S
O1028      C1038   1.267       .  A
O1029      V1035   1.879       .  S
O1029      C1039   1.262       .  A
O1030      V1035   1.890       .  S
O1030      C1040   1.260       .  A
O1031      V1036   1.909       .  S
O1031      C1040   1.268       .  A
O1032      V1036   1.920       .  S
O1032      C1039   1.268       .  A
O1033      V1036   1.891       .  S
O1033      C1038   1.260       .  A
O1034      V1036   1.894       .  S
O1034      C1037   1.261       .  A
V1035      V1036   2.089       .  T
C1037      C1098   1.468       .  S
C1038      C1086   1.468       .  S
C1039      C1094   1.480       .  S
C1040      C1062   1.471       .  S
C1041      C1042   1.423       .  A
C1041      C1046   1.412       .  A
C1041      C1166   1.499       .  S
C1042      C1043   1.405       .  A
C1042      C1150   1.490       .  S
C1043      C1044   1.408       .  A
C1043      H1048   1.083       .  S
C1044      C1045   1.417       .  A
C1044      C1134   1.496       .  S
C1045      C1046   1.406       .  A
C1045      C1117   1.491       .  S
C1046      H1047   1.082       .  S
C1049      C1050   1.421       .  A
C1049      C1054   1.408       .  A
C1049      C1162   1.492       .  S
C1050      C1051   1.405       .  A
C1050      C1154   1.495       .  S
C1051      C1052   1.404       .  A
C1051      H1056   1.084       .  S
C1052      C1053   1.415       .  A
C1052      C1130   1.484       .  S
C1053      C1054   1.413       .  A
C1053      C1114   1.496       .  S
C1054      H1055   1.084       .  S
C1057      H1059   1.087       .  S
C1057      C1058   1.343       .  D
C1058      H1060   1.085       .  S
C1061      H1063   1.086       .  S
C1061      C1062   1.341       .  D
C1062      H1064   1.087       .  S
C1065      H1067   1.081       .  S
C1065      C1066   1.346       .  D
C1066      H1068   1.088       .  S
C1069      H1071   1.086       .  S
C1069      C1070   1.341       .  D
C1070      H1072   1.085       .  S
C1073      H1075   1.086       .  S
C1073      C1074   1.347       .  D
C1074      H1076   1.084       .  S
C1077      H1079   1.086       .  S
C1077      C1078   1.339       .  D
C1078      H1080   1.088       .  S
C1081      H1083   1.086       .  S
C1081      C1082   1.346       .  D
C1082      H1084   1.086       .  S
C1085      H1087   1.084       .  S
C1085      C1086   1.344       .  D
C1086      H1088   1.081       .  S
C1089      H1091   1.087       .  S
C1089      C1090   1.340       .  D
C1090      H1092   1.087       .  S
C1093      H1095   1.087       .  S
C1093      C1094   1.348       .  D
C1094      H1096   1.085       .  S
C1097      H1099   1.087       .  S
C1097      C1098   1.342       .  D
C1098      H1100   1.085       .  S
C1101      H1103   1.086       .  S
C1101      C1102   1.341       .  D
C1102      H1104   1.086       .  S
C1105      H1107   1.085       .  S
C1105      C1106   1.357       .  D
C1106      H1108   1.082       .  S
C1109      H1111   1.083       .  S
C1109      C1110   1.355       .  D
C1110      H1112   1.082       .  S
C1113      H1115   1.087       .  S
C1113      C1114   1.342       .  D
C1114      H1116   1.084       .  S
C1117      H1119   1.086       .  S
C1117      C1118   1.346       .  D
C1118      H1120   1.087       .  S
C1121      H1123   1.088       .  S
C1121      C1122   1.342       .  D
C1122      H1124   1.086       .  S
C1125      H1127   1.086       .  S
C1125      C1126   1.343       .  D
C1126      H1128   1.085       .  S
C1129      H1131   1.086       .  S
C1129      C1130   1.347       .  D
C1130      H1132   1.083       .  S
C1133      H1135   1.084       .  S
C1133      C1134   1.351       .  D
C1134      H1136   1.082       .  S
C1137      H1139   1.082       .  S
C1137      C1138   1.352       .  D
C1138      H1140   1.084       .  S
C1141      H1143   1.087       .  S
C1141      C1142   1.346       .  D
C1142      H1144   1.083       .  S
C1145      H1147   1.078       .  S
C1145      C1146   1.346       .  D
C1146      H1148   1.087       .  S
C1149      H1151   1.086       .  S
C1149      C1150   1.344       .  D
C1150      H1152   1.087       .  S
C1153      H1155   1.086       .  S
C1153      C1154   1.345       .  D
C1154      H1156   1.079       .  S
C1157      H1159   1.086       .  S
C1157      C1158   1.342       .  D
C1158      H1160   1.082       .  S
C1161      H1163   1.086       .  S
C1161      C1162   1.342       .  D
C1162      H1164   1.086       .  S
C1165      H1167   1.085       .  S
C1165      C1166   1.348       .  D
C1166      H1168   1.080       .  S
C1169      H1171   1.087       .  S
C1169      C1170   1.342       .  D
C1170      H1172   1.086       .  S
C1173      H1175   1.086       .  S
C1173      C1174   1.343       .  D
C1174      H1176   1.083       .  S
C1177      H1179   1.086       .  S
C1177      C1178   1.341       .  D
C1178      H1180   1.085       .  S
C1181      H1183   1.083       .  S
C1181      C1182   1.345       .  D
C1182      H1184   1.086       .  S
