geometry optimzed in LAMMPS
_audit_creation_date              2020-12-01 
_audit_creation_method            'lammps2cif' 
_symmetry_space_group_name_H-M    'P1' 
_symmetry_Int_Tables_number       1 
_symmetry_cell_setting            triclinic 
loop_ 
_symmetry_equiv_pos_as_xyz 
  x,y,z 
_cell_length_a                    30.83629599 
_cell_length_b                    30.835491442833483 
_cell_length_c                    30.81991486035725 
_cell_angle_alpha                 89.97907748361092 
_cell_angle_beta                  90.01125855889605 
_cell_angle_gamma                 89.98750849268156 
loop_ 
_atom_site_label 
_atom_site_type_symbol 
_atom_site_fract_x 
_atom_site_fract_y 
_atom_site_fract_z 
_atom_site_charge 
O1          O  0.59700711  0.34458708  0.96832552    -0.72100
O2          O  0.72010004  0.34066083  0.96641595    -0.72300
O3          O  0.65661611  0.28109946  0.96707612    -0.72100
O4          O  0.66054813  0.40415549  0.96755373    -0.72100
O5          O  0.65760100  0.40395665  0.03794708    -0.72100
O6          O  0.66162155  0.28076276  0.03747908    -0.72100
O7          O  0.72111016  0.34430971  0.03689735    -0.72100
O8          O  0.59803901  0.34041178  0.03864626    -0.72300
V9          V  0.65857367  0.34262204  0.96868917     1.35200
V10         V  0.65956677  0.34236047  0.03640947     1.35200
C11         C  0.57646889  0.34254184  0.00379905     0.77200
C12         C  0.74140602  0.34246602  0.00136659     0.77200
C13         C  0.65921389  0.26011615  0.00216438     0.77100
C14         C  0.65912845  0.42510932  0.00279449     0.77100
O15         O  0.08273929  0.40421271  0.96524494    -0.72100
O16         O  0.08429494  0.28110057  0.96550120    -0.72300
O17         O  0.02184812  0.34192568  0.96457371    -0.72100
O18         O  0.14511098  0.34338727  0.96637201    -0.72100
O19         O  0.14400486  0.34217134  0.03680109    -0.72100
O20         O  0.02100053  0.34352760  0.03513288    -0.72100
O21         O  0.08167656  0.28120278  0.03603230    -0.72100
O22         O  0.08325522  0.40440734  0.03569061    -0.72300
V23         V  0.08346872  0.34265797  0.96678218     1.35200
V24         V  0.08250924  0.34281251  0.03453659     1.35200
C25         C  0.08305984  0.42536345  0.00039300     0.77200
C26         C  0.08295388  0.26034159  0.00078938     0.77200
C27         C  0.00062510  0.34269901  0.99962639     0.77100
C28         C  0.16560835  0.34289680  0.00194176     0.77100
O29         O  0.65695347  0.85696971  0.96631718    -0.72100
O30         O  0.66264097  0.98003378  0.96604901    -0.72300
O31         O  0.72135909  0.91574419  0.96585598    -0.72100
O32         O  0.59825378  0.92148025  0.96652795    -0.72100
O33         O  0.59867811  0.91550582  0.03675583    -0.72100
O34         O  0.72170293  0.92152525  0.03619853    -0.72100
O35         O  0.65721858  0.98006440  0.03642535    -0.72100
O36         O  0.66324977  0.85706102  0.03650625    -0.72300
V37         V  0.65981128  0.91852977  0.96748033     1.35200
V38         V  0.66019072  0.91854987  0.03516612     1.35200
C39         C  0.66017834  0.83597518  0.00144972     0.77200
C40         C  0.65993344  0.00085853  0.00121618     0.77200
C41         C  0.74235435  0.91869919  0.00093207     0.77100
C42         C  0.57743874  0.91854194  0.00177067     0.77100
O43         O  0.14600029  0.92208511  0.96701337    -0.72100
O44         O  0.02289313  0.91567533  0.96567411    -0.72300
O45         O  0.08124352  0.98025149  0.96629754    -0.72100
O46         O  0.08778917  0.85730772  0.96619321    -0.72100
O47         O  0.08121987  0.85701988  0.03636180    -0.72100
O48         O  0.08619114  0.98018733  0.03670775    -0.72100
O49         O  0.02225083  0.92108265  0.03604268    -0.72100
O50         O  0.14528874  0.91608930  0.03722519    -0.72300
V51         V  0.08445705  0.91879433  0.96759797     1.35200
V52         V  0.08376293  0.91859793  0.03528261     1.35200
C53         C  0.16668585  0.91930111  0.00236461     0.77200
C54         C  0.00174481  0.91838648  0.00068506     0.77200
C55         C  0.08357411  0.00103760  0.00150131     0.77100
C56         C  0.08464744  0.83613541  0.00120244     0.77100
O57         O  0.59682797  0.09598917  0.79028991    -0.72100
O58         O  0.71988594  0.09548070  0.78790626    -0.72300
O59         O  0.65951486  0.09553659  0.85079201    -0.72100
O60         O  0.65714804  0.09603934  0.72759381    -0.72100
O61         O  0.65914763  0.16643325  0.72785643    -0.72100
O62         O  0.65825796  0.16607414  0.85099893    -0.72100
O63         O  0.72017399  0.16600493  0.78979296    -0.72100
O64         O  0.59698916  0.16639023  0.78899533    -0.72300
V65         V  0.65834806  0.09712987  0.78917681     1.35200
V66         V  0.65860541  0.16486065  0.78941592     1.35200
C67         C  0.57585628  0.13122793  0.78963619     0.77200
C68         C  0.74082055  0.13065625  0.78859331     0.77200
C69         C  0.65905019  0.13075121  0.87170539     0.77100
C70         C  0.65823073  0.13132413  0.70668737     0.77100
O71         O  0.08140341  0.09479098  0.72726521    -0.72100
O72         O  0.08360608  0.09502137  0.85047143    -0.72300
O73         O  0.02085279  0.09490205  0.78988407    -0.72100
O74         O  0.14401956  0.09494207  0.78774445    -0.72100
O75         O  0.14396007  0.16531675  0.79003494    -0.72100
O76         O  0.02087006  0.16539228  0.78705280    -0.72100
O77         O  0.08088682  0.16551251  0.85026804    -0.72100
O78         O  0.08395461  0.16516050  0.72712166    -0.72300
V79         V  0.08244731  0.09626591  0.78885581     1.35200
V80         V  0.08241173  0.16398165  0.78865825     1.35200
C81         C  0.08285966  0.12993886  0.70614664     0.77200
C82         C  0.08225705  0.13031735  0.87119688     0.77200
C83         C  0.00005510  0.13015892  0.78826928     0.77100
C84         C  0.16504185  0.13014964  0.78871540     0.77100
O85         O  0.14600090  0.09593913  0.21248463    -0.72100
O86         O  0.02288549  0.09579775  0.21361865    -0.72300
O87         O  0.08374365  0.09575884  0.15142718    -0.72100
O88         O  0.08524392  0.09599414  0.27454838    -0.72100
O89         O  0.08391039  0.16641857  0.27446525    -0.72100
O90         O  0.08475705  0.16630365  0.15127686    -0.72100
O91         O  0.02279386  0.16633686  0.21245889    -0.72100
O92         O  0.14599124  0.16635566  0.21316002    -0.72300
V93         V  0.08445767  0.09725067  0.21300498     1.35200
V94         V  0.08437819  0.16499102  0.21285748     1.35200
C95         C  0.16704169  0.13113602  0.21283164     0.77200
C96         C  0.00203564  0.13104215  0.21300938     0.77200
C97         C  0.08413154  0.13099793  0.13055571     0.77100
C98         C  0.08466781  0.13121707  0.29552648     0.77100
O99         O  0.66149587  0.09583599  0.27512652    -0.72100
O100        O  0.65967921  0.09509314  0.15196139    -0.72300
O101        O  0.72207676  0.09560080  0.21265071    -0.72100
O102        O  0.59894333  0.09529458  0.21455290    -0.72100
O103        O  0.59871471  0.16569848  0.21245806    -0.72100
O104        O  0.72185774  0.16614414  0.21356955    -0.72100
O105        O  0.66073016  0.16563956  0.15156886    -0.72100
O106        O  0.65976762  0.16623380  0.27470639    -0.72300
V107        V  0.66052500  0.09682224  0.21355372     1.35200
V108        V  0.66027784  0.16455918  0.21311465     1.35200
C109        C  0.66077542  0.13115187  0.29596258     0.77200
C110        C  0.66016181  0.13027048  0.13097450     0.77200
C111        C  0.74276473  0.13092809  0.21298405     0.77100
C112        C  0.57780462  0.13043574  0.21348331     0.77100
O113        O  0.83549421  0.91672604  0.72734302    -0.72100
O114        O  0.83617470  0.91970746  0.85046187    -0.72300
O115        O  0.83548386  0.97977373  0.78742002    -0.72100
O116        O  0.83618180  0.85667363  0.79051404    -0.72100
O117        O  0.90654545  0.85696749  0.78779597    -0.72100
O118        O  0.90601143  0.98010981  0.78912577    -0.72100
O119        O  0.90670269  0.91786849  0.85004873    -0.72100
O120        O  0.90586312  0.91930116  0.72691181    -0.72300
V121        V  0.83719565  0.91822356  0.78890806     1.35200
V122        V  0.90491970  0.91854431  0.78848019     1.35200
C123        C  0.87054943  0.91802320  0.70608409     0.77200
C124        C  0.87156495  0.91889167  0.87104617     0.77200
C125        C  0.87064692  0.00073896  0.78817740     0.77100
C126        C  0.87146178  0.83577708  0.78937187     0.77100
O127        O  0.83536104  0.40403946  0.78699546    -0.72100
O128        O  0.83506254  0.28085351  0.78905767    -0.72300
O129        O  0.83508240  0.34353409  0.84958343    -0.72100
O130        O  0.83529875  0.34141036  0.72640437    -0.72100
O131        O  0.90567661  0.34374425  0.72654840    -0.72100
O132        O  0.90558414  0.34088545  0.84964776    -0.72100
O133        O  0.90557047  0.28074983  0.78675136    -0.72100
O134        O  0.90572875  0.40382091  0.78948530    -0.72300
V135        V  0.83655057  0.34244698  0.78800174     1.35200
V136        V  0.90427091  0.34229555  0.78809726     1.35200
C137        C  0.87060838  0.42498095  0.78837021     0.77200
C138        C  0.87030051  0.25999632  0.78791553     0.77200
C139        C  0.87032193  0.34221660  0.87041129     0.77100
C140        C  0.87052721  0.34268257  0.70542967     0.77100
O141        O  0.83559002  0.85756258  0.21242778    -0.72100
O142        O  0.83646314  0.98074636  0.21265602    -0.72300
O143        O  0.83642242  0.91924065  0.15090043    -0.72100
O144        O  0.83559779  0.91908102  0.27406921    -0.72100
O145        O  0.90600956  0.91908558  0.27458083    -0.72100
O146        O  0.90695786  0.91810914  0.15139587    -0.72100
O147        O  0.90700476  0.98019921  0.21259346    -0.72100
O148        O  0.90599063  0.85706999  0.21351331    -0.72300
V149        V  0.83738785  0.91914569  0.21250590     1.35200
V150        V  0.90511685  0.91862716  0.21299569     1.35200
C151        C  0.87065025  0.83626650  0.21310474     0.77200
C152        C  0.87189452  0.00128144  0.21271485     0.77200
C153        C  0.87182942  0.91855877  0.13033823     0.77100
C154        C  0.87065278  0.91920903  0.29537081     0.77100
O155        O  0.90655566  0.40466469  0.21395255    -0.72100
O156        O  0.90725249  0.28155004  0.21057092    -0.72300
O157        O  0.90693815  0.34479665  0.15054804    -0.72100
O158        O  0.90687486  0.34137335  0.27371008    -0.72100
O159        O  0.83652061  0.34455791  0.27366679    -0.72100
O160        O  0.83649492  0.34101280  0.15054162    -0.72100
O161        O  0.83678602  0.28123280  0.21392513    -0.72100
O162        O  0.83622399  0.40432407  0.21039021    -0.72300
V163        V  0.90556157  0.34309974  0.21215833     1.35200
V164        V  0.83785550  0.34278587  0.21211415     1.35200
C165        C  0.87126906  0.42553355  0.21239221     0.77200
C166        C  0.87212457  0.26058827  0.21240512     0.77200
C167        C  0.87171255  0.34285557  0.12972547     0.77100
C168        C  0.87169104  0.34296143  0.29472393     0.77100
O169        O  0.93262233  0.30733314  0.00056873    -0.72100
O170        O  0.80946647  0.30721509  0.99955646    -0.72300
O171        O  0.87158588  0.30710146  0.93852873    -0.72100
O172        O  0.87048806  0.30741835  0.06171780    -0.72100
O173        O  0.87255643  0.37794380  0.06151994    -0.72100
O174        O  0.86939059  0.37763014  0.93836245    -0.72100
O175        O  0.80942795  0.37774527  0.00152969    -0.72100
O176        O  0.93251944  0.37785852  0.99838879    -0.72300
V177        V  0.87104173  0.30862862  0.00009660     1.35200
V178        V  0.87097257  0.37642821  0.99993765     1.35200
C179        C  0.95336786  0.34262010  0.99931473     0.77200
C180        C  0.78865324  0.34247059  0.00074745     0.77200
C181        C  0.87036121  0.34231541  0.91765380     0.77100
C182        C  0.87164773  0.34273204  0.08243137     0.77100
O183        O  0.81046216  0.95399718  0.00102260    -0.72100
O184        O  0.93368664  0.95380913  0.00055082    -0.72300
O185        O  0.87179937  0.95409574  0.93913745    -0.72100
O186        O  0.87226777  0.95382756  0.06229841    -0.72100
O187        O  0.87201589  0.88327100  0.06219694    -0.72100
O188        O  0.87199337  0.88353326  0.93899538    -0.72100
O189        O  0.93358787  0.88325587  0.00043755    -0.72100
O190        O  0.81043115  0.88344493  0.00047275    -0.72300
V191        V  0.87206860  0.95256143  0.00072891     1.35200
V192        V  0.87200988  0.88475260  0.00055491     1.35200
C193        C  0.78963918  0.91872745  0.00076608     0.77200
C194        C  0.95444892  0.91848750  0.00042211     0.77200
C195        C  0.87182285  0.91885890  0.91827964     0.77100
C196        C  0.87210552  0.91852767  0.08305469     0.77100
O197        O  0.81079151  0.13092906  0.17754467    -0.72100
O198        O  0.93399718  0.13095768  0.17759436    -0.72300
O199        O  0.87237755  0.06937788  0.17753603    -0.72100
O200        O  0.87241377  0.19246635  0.17739213    -0.72100
O201        O  0.87235057  0.19260199  0.24798516    -0.72100
O202        O  0.87228953  0.06935811  0.24812651    -0.72100
O203        O  0.93393388  0.13093470  0.24818616    -0.72100
O204        O  0.81083356  0.13106426  0.24813808    -0.72300
V205        V  0.87239847  0.13093045  0.17889589     1.35200
V206        V  0.87237020  0.13098526  0.24673887     1.35200
C207        C  0.79001828  0.13101416  0.21286504     0.77200
C208        C  0.95476601  0.13097669  0.21292247     0.77200
C209        C  0.87223835  0.04856247  0.21281448     0.77100
C210        C  0.87233518  0.21333046  0.21262272     0.77100
O211        O  0.93198609  0.13074402  0.75278561    -0.72100
O212        O  0.80874416  0.12993653  0.75293549    -0.72300
O213        O  0.86993950  0.19190442  0.75272128    -0.72100
O214        O  0.87075683  0.06877025  0.75281408    -0.72100
O215        O  0.87005837  0.06879317  0.82340504    -0.72100
O216        O  0.87082279  0.19195518  0.82330858    -0.72100
O217        O  0.80894732  0.13085217  0.82352461    -0.72100
O218        O  0.93198406  0.12985424  0.82337227    -0.72300
V219        V  0.87035953  0.13033803  0.75417476     1.35200
V220        V  0.87045399  0.13036488  0.82201759     1.35200
C221        C  0.95278556  0.13023116  0.78810405     0.77200
C222        C  0.78805774  0.13045712  0.78830703     0.77200
C223        C  0.87031634  0.21272927  0.78798587     0.77100
C224        C  0.87044315  0.04798871  0.78812029     0.77100
O225        O  0.62466328  0.13151449  0.06308594    -0.72100
O226        O  0.62415958  0.12918061  0.93994573    -0.72300
O227        O  0.62458019  0.06882421  0.00281166    -0.72100
O228        O  0.62423039  0.19193241  0.00033448    -0.72100
O229        O  0.69473417  0.19212431  0.00298473    -0.72100
O230        O  0.69506179  0.06898120  0.99956544    -0.72100
O231        O  0.69465236  0.13214395  0.93964549    -0.72100
O232        O  0.69517649  0.12890284  0.06281040    -0.72300
V233        V  0.62577147  0.13036998  0.00152373     1.35200
V234        V  0.69355827  0.13053955  0.00124640     1.35200
C235        C  0.65999867  0.13013839  0.08373899     0.77200
C236        C  0.65930949  0.13066535  0.91898672     0.77200
C237        C  0.65986472  0.04810729  0.00117495     0.77100
C238        C  0.65940689  0.21283623  0.00185074     0.77100
O239        O  0.11885250  0.13271014  0.06224618    -0.72100
O240        O  0.11791013  0.12878077  0.93910382    -0.72300
O241        O  0.11823204  0.19230359  0.99872851    -0.72100
O242        O  0.11856019  0.06921712  0.00276809    -0.72100
O243        O  0.04807520  0.06902186  0.99965880    -0.72100
O244        O  0.04779838  0.19219492  0.00281425    -0.72100
O245        O  0.04744294  0.13220035  0.93957624    -0.72100
O246        O  0.04839204  0.12903283  0.06276835    -0.72300
V247        V  0.11703639  0.13075321  0.00070265     1.35200
V248        V  0.04926674  0.13061318  0.00118500     1.35200
C249        C  0.08378070  0.13091799  0.08330601     0.77200
C250        C  0.08253009  0.13043571  0.91851417     0.77200
C251        C  0.08298588  0.21306003  0.00080004     0.77100
C252        C  0.08338034  0.04831152  0.00138732     0.77100
C253        C  0.87039071  0.78829943  0.21352502    -0.03600
C254        C  0.83099467  0.76530187  0.21286482    -0.09400
C255        C  0.83086764  0.71995607  0.21347931    -0.17100
C256        C  0.87004151  0.69706266  0.21477203     0.25100
C257        C  0.90937695  0.71966219  0.21538322    -0.18700
C258        C  0.90959762  0.76498734  0.21475971    -0.07600
C259        C  0.86992543  0.65040943  0.21528292    -0.14100
C260        C  0.87003229  0.61132026  0.21537472    -0.13800
C261        C  0.87027877  0.56466704  0.21495005     0.25000
C262        C  0.90849622  0.54200440  0.22425310    -0.19200
C263        C  0.90890681  0.49667449  0.22325133    -0.07700
C264        C  0.87096470  0.47346428  0.21314194    -0.03800
C265        C  0.83265018  0.49650745  0.20406279    -0.09100
C266        C  0.83238408  0.54183786  0.20485015    -0.16700
H267        H  0.80029162  0.78232991  0.21189598     0.11400
H268        H  0.80022447  0.70275761  0.21294366     0.10700
H269        H  0.93989558  0.70224352  0.21633789     0.10700
H270        H  0.94044385  0.78175812  0.21529055     0.11200
H271        H  0.93800278  0.55937271  0.23217955     0.11200
H272        H  0.93882072  0.47980192  0.23062681     0.11200
H273        H  0.80297039  0.47951492  0.19609215     0.11300
H274        H  0.80263699  0.55908061  0.19752140     0.10200
C275        C  0.87167131  0.34294229  0.34264827    -0.03600
C276        C  0.83344439  0.35220983  0.36573450    -0.09400
C277        C  0.83348334  0.35231553  0.41107795    -0.17100
C278        C  0.87160486  0.34294718  0.43386025     0.25100
C279        C  0.90976156  0.33354586  0.41116215    -0.18700
C280        C  0.90986655  0.33364850  0.36581014    -0.07600
C281        C  0.87154056  0.34301133  0.48050521    -0.14100
C282        C  0.87135136  0.34309430  0.51959363    -0.13800
C283        C  0.87109069  0.34314628  0.56623977     0.25000
C284        C  0.90976306  0.34926376  0.58917782    -0.19200
C285        C  0.90960864  0.34909120  0.63452176    -0.07700
C286        C  0.87066744  0.34292444  0.65747490    -0.03800
C287        C  0.83191772  0.33695408  0.63414041    -0.09100
C288        C  0.83218832  0.33699624  0.58878448    -0.16700
H289        H  0.80359545  0.35963183  0.34876079     0.11400
H290        H  0.80378139  0.35969506  0.42836807     0.10700
H291        H  0.93943740  0.32616776  0.42851828     0.10700
H292        H  0.93973357  0.32622001  0.34889197     0.11200
H293        H  0.94005245  0.35411222  0.57201150     0.11200
H294        H  0.93992614  0.35390228  0.65159345     0.11200
H295        H  0.80145815  0.33204857  0.65091604     0.11300
H296        H  0.80206455  0.33219993  0.57130157     0.10200
C297        C  0.87031439  0.91956809  0.34332707    -0.03600
C298        C  0.83085050  0.92067133  0.36619791    -0.09400
C299        C  0.83059645  0.92105741  0.41154669    -0.17100
C300        C  0.86970868  0.92032307  0.43455532     0.25100
C301        C  0.90911605  0.91925456  0.41209098    -0.18700
C302        C  0.90946642  0.91889389  0.36675045    -0.07600
C303        C  0.86943480  0.92043170  0.48119619    -0.14100
C304        C  0.86942849  0.92022765  0.52028223    -0.13800
C305        C  0.86967850  0.91966992  0.56692050     0.25000
C306        C  0.90863647  0.92531227  0.58949887    -0.19200
C307        C  0.90898671  0.92456959  0.63483557    -0.07700
C308        C  0.87026847  0.91830885  0.65813631    -0.03800
C309        C  0.83125409  0.91269205  0.63515956    -0.09100
C310        C  0.83101765  0.91331030  0.58981193    -0.16700
H311        H  0.80018913  0.92125289  0.34906772     0.11400
H312        H  0.79990328  0.92187970  0.42865892     0.10700
H313        H  0.93958367  0.91865539  0.42962830     0.10700
H314        H  0.94035318  0.91804200  0.35005913     0.11200
H315        H  0.93874784  0.93028094  0.57205728     0.11200
H316        H  0.93950035  0.92911840  0.65162953     0.11200
H317        H  0.80095385  0.90773886  0.65220948     0.11300
H318        H  0.80068498  0.90884588  0.57260770     0.10200
C319        C  0.87081252  0.47294572  0.78872109    -0.03600
C320        C  0.91019205  0.49586735  0.79103768    -0.09400
C321        C  0.91040091  0.54119913  0.79137353    -0.17100
C322        C  0.87132309  0.56418642  0.78939369     0.25100
C323        C  0.83198380  0.54167590  0.78711988    -0.18700
C324        C  0.83168058  0.49633212  0.78679916    -0.07600
C325        C  0.87160395  0.61084233  0.78967869    -0.14100
C326        C  0.87179051  0.64993190  0.78988766    -0.13800
C327        C  0.87181002  0.69658993  0.79005537     0.25000
C328        C  0.83321805  0.71929744  0.79743972    -0.19200
C329        C  0.83308078  0.76463238  0.79725584    -0.07700
C330        C  0.87164989  0.78782603  0.78982079    -0.03800
C331        C  0.91034343  0.76473188  0.78268507    -0.09100
C332        C  0.91035917  0.71938429  0.78270659    -0.16700
H333        H  0.94084289  0.47878592  0.79260740     0.11400
H334        H  0.94104053  0.55831547  0.79316585     0.10700
H335        H  0.80153438  0.55917598  0.78558575     0.10700
H336        H  0.80085667  0.47961160  0.78501568     0.11200
H337        H  0.80320752  0.70195833  0.80324715     0.11200
H338        H  0.80282681  0.78151278  0.80303271     0.11200
H339        H  0.94052113  0.78169324  0.77679856     0.11300
H340        H  0.94041961  0.70210709  0.77692920     0.10200
C341        C  0.52989231  0.13033310  0.21334023    -0.03600
C342        C  0.50676477  0.16772302  0.20117176    -0.09400
C343        C  0.46142839  0.16758299  0.20086219    -0.17100
C344        C  0.43867810  0.13024159  0.21302415     0.25100
C345        C  0.46144205  0.09291934  0.22529743    -0.18700
C346        C  0.50679364  0.09287107  0.22529354    -0.07600
C347        C  0.39201176  0.13027794  0.21297478    -0.14100
C348        C  0.35291649  0.13045251  0.21295915    -0.13800
C349        C  0.30624995  0.13067028  0.21295968     0.25000
C350        C  0.28335007  0.09190503  0.21859533    -0.19200
C351        C  0.23801431  0.09202621  0.21847802    -0.07700
C352        C  0.21500181  0.13103339  0.21289133    -0.03800
C353        C  0.23828508  0.16986917  0.20737641    -0.09100
C354        C  0.28363689  0.16963142  0.20732020    -0.16700
H355        H  0.52371704  0.19693923  0.19156220     0.11400
H356        H  0.44412133  0.19661816  0.19119276     0.10700
H357        H  0.44414075  0.06385949  0.23485770     0.10700
H358        H  0.52377577  0.06368806  0.23499010     0.11200
H359        H  0.30054064  0.06156399  0.22305578     0.11200
H360        H  0.22099358  0.06164075  0.22294805     0.11200
H361        H  0.22146605  0.20037870  0.20289173     0.11300
H362        H  0.30105978  0.19982823  0.20288380     0.10200
C363        C  0.08488770  0.13116200  0.34342604    -0.03600
C364        C  0.09616207  0.09338990  0.36638812    -0.09400
C365        C  0.09637723  0.09328836  0.41172506    -0.17100
C366        C  0.08503328  0.13078403  0.43461555     0.25100
C367        C  0.07367862  0.16850001  0.41203056    -0.18700
C368        C  0.07375935  0.16878093  0.36667293    -0.07600
C369        C  0.08493929  0.13049152  0.48125351    -0.14100
C370        C  0.08476174  0.13019735  0.52033677    -0.13800
C371        C  0.08440771  0.13004571  0.56697395     0.25000
C372        C  0.08780464  0.16910634  0.58978990    -0.19200
C373        C  0.08726349  0.16909246  0.63512134    -0.07700
C374        C  0.08336531  0.12991720  0.65819525    -0.03800
C375        C  0.08005784  0.09078387  0.63498231    -0.09100
C376        C  0.08054419  0.09089944  0.58962707    -0.16700
H377        H  0.10509758  0.06403141  0.34930534     0.11400
H378        H  0.10531259  0.06394906  0.42892310     0.10700
H379        H  0.06474795  0.19768148  0.42948060     0.10700
H380        H  0.06474568  0.19825048  0.34980833     0.11200
H381        H  0.09083400  0.19959021  0.57253432     0.11200
H382        H  0.08995685  0.19972414  0.65208378     0.11200
H383        H  0.07700862  0.06012189  0.65184543     0.11300
H384        H  0.07787853  0.06047046  0.57223297     0.10200
C385        C  0.65875175  0.13153516  0.65875155    -0.03600
C386        C  0.65167490  0.09302373  0.63536615    -0.09400
C387        C  0.65257146  0.09321732  0.59002444    -0.17100
C388        C  0.66073291  0.13179777  0.56754598     0.25100
C389        C  0.66786595  0.17025704  0.59054222    -0.18700
C390        C  0.66678983  0.17019228  0.63587978    -0.07600
C391        C  0.66159490  0.13193613  0.52090332    -0.14100
C392        C  0.66197163  0.13194346  0.48181280    -0.13800
C393        C  0.66196025  0.13180457  0.43516060     0.25000
C394        C  0.65606310  0.17056094  0.41227456    -0.19200
C395        C  0.65574474  0.17041343  0.36691989    -0.07700
C396        C  0.66118030  0.13139529  0.34392042    -0.03800
C397        C  0.66707926  0.09259536  0.36721178    -0.09100
C398        C  0.66753091  0.09285653  0.41255903    -0.16700
H399        H  0.64531648  0.06279673  0.65209714     0.11400
H400        H  0.64692894  0.06327805  0.57250223     0.10700
H401        H  0.67425563  0.20029917  0.57342915     0.10700
H402        H  0.67254580  0.20029753  0.65301440     0.11200
H403        H  0.65165332  0.20088556  0.42948749     0.11200
H404        H  0.65105581  0.20077617  0.34988158     0.11200
H405        H  0.67147590  0.06207740  0.35040568     0.11300
H406        H  0.67214278  0.06266875  0.42999079     0.10200
C407        C  0.21300673  0.13023295  0.78807649    -0.03600
C408        C  0.23626926  0.09097654  0.78784441    -0.09400
C409        C  0.28160987  0.09114588  0.78712671    -0.17100
C410        C  0.30424337  0.13047720  0.78657241     0.25100
C411        C  0.28137642  0.16967707  0.78663210    -0.18700
C412        C  0.23604805  0.16960272  0.78739928    -0.07600
C413        C  0.35090381  0.13064235  0.78640338    -0.14100
C414        C  0.38999401  0.13084579  0.78676165    -0.13800
C415        C  0.43664769  0.13099759  0.78761755     0.25000
C416        C  0.45929500  0.17031907  0.78848378    -0.19200
C417        C  0.50463922  0.17047402  0.78932632    -0.06500
C418        C  0.52788422  0.13121193  0.78933565    -0.03800
C419        C  0.50481767  0.09185076  0.78862281    -0.09100
C420        C  0.45949505  0.09179043  0.78774483    -0.16700
H421        H  0.21945480  0.06015541  0.78829850     0.11400
H422        H  0.29901060  0.06060128  0.78710452     0.10700
H423        H  0.29858911  0.20031509  0.78619475     0.10700
H424        H  0.21906397  0.20034398  0.78743550     0.11200
H425        H  0.44190344  0.20086835  0.78846250     0.11200
H426        H  0.52147195  0.20128254  0.78989377     0.11200
H427        H  0.52178080  0.06109650  0.78858984     0.11300
H428        H  0.44227600  0.06116024  0.78712666     0.10200
C429        C  0.21460757  0.91985725  0.00293582    -0.03600
C430        C  0.23750815  0.90535251  0.03965122    -0.09400
C431        C  0.28286942  0.90558648  0.03998456    -0.17100
C432        C  0.30584924  0.92066338  0.00383106     0.25100
C433        C  0.28328251  0.93549227  0.96731338    -0.18700
C434        C  0.23794292  0.93493609  0.96676091    -0.07600
C435        C  0.35254136  0.92059007  0.00400092    -0.14100
C436        C  0.39165067  0.92030281  0.00373875    -0.13800
C437        C  0.43833682  0.91977622  0.00317791     0.25000
C438        C  0.46089060  0.93724389  0.96783447    -0.19200
C439        C  0.50624129  0.93654869  0.96716851    -0.07700
C440        C  0.52954947  0.91877160  0.00212271    -0.03800
C441        C  0.50667390  0.90142979  0.03756145    -0.09100
C442        C  0.46132623  0.90173012  0.03794585    -0.16700
H443        H  0.22036458  0.89340840  0.06789273     0.11400
H444        H  0.30001066  0.89393886  0.06839893     0.10700
H445        H  0.30074219  0.94734677  0.93919160     0.10700
H446        H  0.22113883  0.94657896  0.93817810     0.11200
H447        H  0.44342196  0.95138542  0.94078558     0.11200
H448        H  0.52308656  0.95037249  0.93961005     0.11200
H449        H  0.52385094  0.88729341  0.06476543     0.11300
H450        H  0.44420016  0.88796759  0.06539438     0.10200
C451        C  0.08329674  0.47333787  0.00020101    -0.03600
C452        C  0.08078718  0.49638111  0.96086340    -0.09400
C453        C  0.08114221  0.54172897  0.96073167    -0.17100
C454        C  0.08408143  0.56459700  0.99983594     0.25100
C455        C  0.08659602  0.54195038  0.03911414    -0.18700
C456        C  0.08617499  0.49661191  0.03934339    -0.07600
C457        C  0.08449472  0.61126681  0.99970455    -0.14100
C458        C  0.08477190  0.65036493  0.99984856    -0.13800
C459        C  0.08494094  0.69703605  0.00026046     0.25000
C460        C  0.06781367  0.71951808  0.03579528    -0.19200
C461        C  0.06798433  0.76486474  0.03628459    -0.07700
C462        C  0.08491235  0.78824285  0.00097233    -0.03800
C463        C  0.10194148  0.76542857  0.96533909    -0.09100
C464        C  0.10213803  0.72007900  0.96511271    -0.16700
H465        H  0.07849779  0.47938652  0.93020889     0.11400
H466        H  0.07914469  0.55894814  0.93013147     0.10700
H467        H  0.08889225  0.55934242  0.06957809     0.10700
H468        H  0.08821599  0.47979947  0.07013221     0.11200
H469        H  0.05431326  0.70199179  0.06312854     0.11200
H470        H  0.05443407  0.78164142  0.06400850     0.11200
H471        H  0.11542847  0.78265194  0.93784281     0.11300
H472        H  0.11560007  0.70299875  0.93749677     0.10200
C473        C  0.66037796  0.78805552  0.00159299    -0.03600
C474        C  0.67502288  0.76512447  0.03823097    -0.09400
C475        C  0.67524746  0.71977776  0.03836258    -0.17100
C476        C  0.66052457  0.69681877  0.00206874     0.25100
C477        C  0.64580532  0.71939735  0.96550399    -0.18700
C478        C  0.64588854  0.76475163  0.96516190    -0.07600
C479        C  0.66040505  0.65013420  0.00239104    -0.14100
C480        C  0.66020028  0.61102755  0.00262087    -0.13800
C481        C  0.65990649  0.56434160  0.00271841     0.25000
C482        C  0.66904759  0.54149086  0.96457716    -0.19200
C483        C  0.66866010  0.49614966  0.96455469    -0.07700
C484        C  0.65933632  0.47307318  0.00281587    -0.03800
C485        C  0.65028877  0.49629299  0.04103372    -0.09100
C486        C  0.65046236  0.54165498  0.04091503    -0.16700
H487        H  0.68660166  0.78224088  0.06663745     0.11400
H488        H  0.68682290  0.70262865  0.06680126     0.10700
H489        H  0.63424963  0.70194443  0.93726231     0.10700
H490        H  0.63424044  0.78158020  0.93659432     0.11200
H491        H  0.67646477  0.55872384  0.93483489     0.11200
H492        H  0.67592081  0.47916535  0.93467749     0.11200
H493        H  0.64284327  0.47941087  0.07093615     0.11300
H494        H  0.64326030  0.55902722  0.07061410     0.10200
C495        C  0.21357479  0.34325237  0.00286473    -0.03600
C496        C  0.23590966  0.34577384  0.04260667    -0.09400
C497        C  0.28123944  0.34610785  0.04352432    -0.17100
C498        C  0.30481825  0.34384204  0.00480742     0.25100
C499        C  0.28288741  0.34138852  0.96511533    -0.18700
C500        C  0.23754857  0.34114339  0.96409951    -0.07600
C501        C  0.35148201  0.34384552  0.00577328    -0.14100
C502        C  0.39058012  0.34367312  0.00609703    -0.13800
C503        C  0.43725077  0.34338242  0.00566303     0.25000
C504        C  0.45956266  0.35017268  0.96672066    -0.19200
C505        C  0.50488578  0.34978673  0.96607567    -0.07700
C506        C  0.52850307  0.34272887  0.00448565    -0.03800
C507        C  0.50581389  0.33597012  0.04351467    -0.09100
C508        C  0.46045511  0.33622994  0.04404448    -0.16700
H509        H  0.21836752  0.34755540  0.07298904     0.11400
H510        H  0.29789023  0.34806269  0.07443543     0.10700
H511        H  0.30084086  0.33960927  0.93493974     0.10700
H512        H  0.22128752  0.33916140  0.93301727     0.11200
H513        H  0.44191193  0.35575836  0.93681935     0.11200
H514        H  0.52142396  0.35518937  0.93555768     0.11200
H515        H  0.52309727  0.33034802  0.07358718     0.11300
H516        H  0.44349715  0.33086579  0.07437229     0.10200
loop_ 
_geom_bond_atom_site_label_1 
_geom_bond_atom_site_label_2 
_geom_bond_distance 
_geom_bond_site_symmetry_2 
_ccdc_geom_bond_type 
O1            V9   1.899       .  S
O1           C11   1.265   1_556  A
O2            V9   1.900       .  S
O2           C12   1.263   1_556  A
O3            V9   1.899       .  S
O3           C13   1.263   1_556  A
O4            V9   1.899       .  S
O4           C14   1.265   1_556  A
O5           V10   1.901       .  S
O5           C14   1.265       .  A
O6           V10   1.901       .  S
O6           C13   1.263       .  A
O7           V10   1.899       .  S
O7           C12   1.263       .  A
O8           V10   1.900       .  S
O8           C11   1.265       .  A
V9           V10   2.087   1_556  T
C11         C506   1.479       .  S
C12         C180   1.457       .  S
C13         C238   1.458       .  S
C14         C484   1.479       .  S
O15          V23   1.899       .  S
O15          C25   1.265   1_556  A
O16          V23   1.899       .  S
O16          C26   1.262   1_556  A
O17          V23   1.901       .  S
O17          C27   1.263       .  A
O18          V23   1.901       .  S
O18          C28   1.265   1_556  A
O19          V24   1.898       .  S
O19          C28   1.264       .  A
O20          V24   1.897       .  S
O20          C27   1.262   1_554  A
O21          V24   1.900       .  S
O21          C26   1.263       .  A
O22          V24   1.900       .  S
O22          C25   1.265       .  A
V23          V24   2.088   1_556  T
C25         C451   1.479       .  S
C26         C251   1.458       .  S
C27         C179   1.457   1_455  S
C28         C495   1.479       .  S
O29          V37   1.901       .  S
O29          C39   1.265   1_556  A
O30          V37   1.899       .  S
O30          C40   1.263   1_566  A
O31          V37   1.901       .  S
O31          C41   1.263   1_556  A
O32          V37   1.901       .  S
O32          C42   1.265   1_556  A
O33          V38   1.900       .  S
O33          C42   1.265       .  A
O34          V38   1.899       .  S
O34          C41   1.263       .  A
O35          V38   1.899       .  S
O35          C40   1.263   1_565  A
O36          V38   1.899       .  S
O36          C39   1.265       .  A
V37          V38   2.086   1_556  T
C39         C473   1.478       .  S
C40         C237   1.457       .  S
C41         C193   1.458       .  S
C42         C440   1.477       .  S
O43          V51   1.901       .  S
O43          C53   1.265   1_556  A
O44          V51   1.902       .  S
O44          C54   1.264   1_556  A
O45          V51   1.898       .  S
O45          C55   1.262   1_566  A
O46          V51   1.899       .  S
O46          C56   1.265   1_556  A
O47          V52   1.901       .  S
O47          C56   1.265       .  A
O48          V52   1.901       .  S
O48          C55   1.264   1_565  A
O49          V52   1.898       .  S
O49          C54   1.263       .  A
O50          V52   1.900       .  S
O50          C53   1.265       .  A
V51          V52   2.086   1_556  T
C53         C429   1.478       .  S
C54         C194   1.458   1_455  S
C55         C252   1.458       .  S
C56         C462   1.477       .  S
O57          V65   1.898       .  S
O57          C67   1.265       .  A
O58          V65   1.899       .  S
O58          C68   1.263       .  A
O59          V65   1.900       .  S
O59          C69   1.263       .  A
O60          V65   1.899       .  S
O60          C70   1.265       .  A
O61          V66   1.898       .  S
O61          C70   1.265       .  A
O62          V66   1.898       .  S
O62          C69   1.262       .  A
O63          V66   1.899       .  S
O63          C68   1.263       .  A
O64          V66   1.901       .  S
O64          C67   1.265       .  A
V65          V66   2.089       .  T
C67         C418   1.479       .  S
C68         C222   1.457       .  S
C69         C236   1.457       .  S
C70         C385   1.477       .  S
O71          V79   1.899       .  S
O71          C81   1.265       .  A
O72          V79   1.900       .  S
O72          C82   1.263       .  A
O73          V79   1.900       .  S
O73          C83   1.263       .  A
O74          V79   1.899       .  S
O74          C84   1.265       .  A
O75          V80   1.899       .  S
O75          C84   1.265       .  A
O76          V80   1.899       .  S
O76          C83   1.263       .  A
O77          V80   1.900       .  S
O77          C82   1.263       .  A
O78          V80   1.897       .  S
O78          C81   1.265       .  A
V79          V80   2.088       .  T
C81         C374   1.478       .  S
C82         C250   1.458       .  S
C83         C221   1.458   1_455  S
C84         C407   1.479       .  S
O85          V93   1.898       .  S
O85          C95   1.265       .  A
O86          V93   1.899       .  S
O86          C96   1.263       .  A
O87          V93   1.899       .  S
O87          C97   1.263       .  A
O88          V93   1.897       .  S
O88          C98   1.264       .  A
O89          V94   1.899       .  S
O89          C98   1.265       .  A
O90          V94   1.898       .  S
O90          C97   1.263       .  A
O91          V94   1.900       .  S
O91          C96   1.263       .  A
O92          V94   1.900       .  S
O92          C95   1.265       .  A
V93          V94   2.089       .  T
C95         C352   1.479       .  S
C96         C208   1.458   1_455  S
C97         C249   1.456       .  S
C98         C363   1.476       .  S
O99         V107   1.898       .  S
O99         C109   1.265       .  A
O100        V107   1.899       .  S
O100        C110   1.263       .  A
O101        V107   1.899       .  S
O101        C111   1.263       .  A
O102        V107   1.900       .  S
O102        C112   1.265       .  A
O103        V108   1.899       .  S
O103        C112   1.265       .  A
O104        V108   1.900       .  S
O104        C111   1.263       .  A
O105        V108   1.897       .  S
O105        C110   1.262       .  A
O106        V108   1.899       .  S
O106        C109   1.265       .  A
V107        V108   2.089       .  T
C109        C396   1.478       .  S
C110        C235   1.456       .  S
C111        C207   1.457       .  S
C112        C341   1.477       .  S
O113        V121   1.899       .  S
O113        C123   1.265       .  A
O114        V121   1.898       .  S
O114        C124   1.262       .  A
O115        V121   1.899       .  S
O115        C125   1.263   1_565  A
O116        V121   1.899       .  S
O116        C126   1.265       .  A
O117        V122   1.900       .  S
O117        C126   1.265       .  A
O118        V122   1.899       .  S
O118        C125   1.263   1_565  A
O119        V122   1.898       .  S
O119        C124   1.263       .  A
O120        V122   1.898       .  S
O120        C123   1.265       .  A
V121        V122   2.088       .  T
C123        C308   1.478       .  S
C124        C195   1.456       .  S
C125        C224   1.457       .  S
C126        C330   1.479       .  S
O127        V135   1.900       .  S
O127        C137   1.265       .  A
O128        V135   1.900       .  S
O128        C138   1.263       .  A
O129        V135   1.899       .  S
O129        C139   1.263       .  A
O130        V135   1.899       .  S
O130        C140   1.265       .  A
O131        V136   1.898       .  S
O131        C140   1.265       .  A
O132        V136   1.898       .  S
O132        C139   1.262       .  A
O133        V136   1.899       .  S
O133        C138   1.263       .  A
O134        V136   1.898       .  S
O134        C137   1.265       .  A
V135        V136   2.088       .  T
C137        C319   1.479       .  S
C138        C223   1.458       .  S
C139        C181   1.456       .  S
C140        C286   1.478       .  S
O141        V149   1.900       .  S
O141        C151   1.265       .  A
O142        V149   1.900       .  S
O142        C152   1.263   1_565  A
O143        V149   1.899       .  S
O143        C153   1.263       .  A
O144        V149   1.898       .  S
O144        C154   1.265       .  A
O145        V150   1.898       .  S
O145        C154   1.265       .  A
O146        V150   1.899       .  S
O146        C153   1.263       .  A
O147        V150   1.900       .  S
O147        C152   1.263   1_565  A
O148        V150   1.898       .  S
O148        C151   1.265       .  A
V149        V150   2.089       .  T
C151        C253   1.479       .  S
C152        C209   1.458       .  S
C153        C196   1.457       .  S
C154        C297   1.478       .  S
O155        V163   1.899       .  S
O155        C165   1.265       .  A
O156        V163   1.899       .  S
O156        C166   1.263       .  A
O157        V163   1.900       .  S
O157        C167   1.263       .  A
O158        V163   1.898       .  S
O158        C168   1.265       .  A
O159        V164   1.898       .  S
O159        C168   1.265       .  A
O160        V164   1.899       .  S
O160        C167   1.263       .  A
O161        V164   1.899       .  S
O161        C166   1.263       .  A
O162        V164   1.899       .  S
O162        C165   1.265       .  A
V163        V164   2.088       .  T
C165        C264   1.478       .  S
C166        C210   1.457       .  S
C167        C182   1.458       .  S
C168        C275   1.477       .  S
O169        V177   1.899       .  S
O169        C179   1.263   1_554  A
O170        V177   1.899   1_556  S
O170        C180   1.263   1_556  A
O171        V177   1.898   1_556  S
O171        C181   1.262       .  A
O172        V177   1.900       .  S
O172        C182   1.263       .  A
O173        V178   1.899   1_554  S
O173        C182   1.263       .  A
O174        V178   1.899       .  S
O174        C181   1.263       .  A
O175        V178   1.899   1_554  S
O175        C180   1.263       .  A
O176        V178   1.899       .  S
O176        C179   1.263       .  A
V177        V178   2.091   1_554  T
O183        V191   1.900       .  S
O183        C193   1.263       .  A
O184        V191   1.900       .  S
O184        C194   1.263       .  A
O185        V191   1.899   1_556  S
O185        C195   1.263       .  A
O186        V191   1.898       .  S
O186        C196   1.262       .  A
O187        V192   1.900       .  S
O187        C196   1.263       .  A
O188        V192   1.898   1_556  S
O188        C195   1.262       .  A
O189        V192   1.899       .  S
O189        C194   1.263       .  A
O190        V192   1.899       .  S
O190        C193   1.263       .  A
V191        V192   2.091       .  T
O197        V205   1.900       .  S
O197        C207   1.263       .  A
O198        V205   1.900       .  S
O198        C208   1.263       .  A
O199        V205   1.898       .  S
O199        C209   1.262       .  A
O200        V205   1.898       .  S
O200        C210   1.262       .  A
O201        V206   1.900       .  S
O201        C210   1.263       .  A
O202        V206   1.901       .  S
O202        C209   1.263       .  A
O203        V206   1.899       .  S
O203        C208   1.263       .  A
O204        V206   1.898       .  S
O204        C207   1.262       .  A
V205        V206   2.091       .  T
O211        V219   1.901       .  S
O211        C221   1.263       .  A
O212        V219   1.900       .  S
O212        C222   1.263       .  A
O213        V219   1.899       .  S
O213        C223   1.263       .  A
O214        V219   1.899       .  S
O214        C224   1.263       .  A
O215        V220   1.899       .  S
O215        C224   1.263       .  A
O216        V220   1.900       .  S
O216        C223   1.263       .  A
O217        V220   1.897       .  S
O217        C222   1.262       .  A
O218        V220   1.898       .  S
O218        C221   1.262       .  A
V219        V220   2.091       .  T
O225        V233   1.898       .  S
O225        C235   1.263       .  A
O226        V233   1.899   1_556  S
O226        C236   1.263       .  A
O227        V233   1.899       .  S
O227        C237   1.263       .  A
O228        V233   1.899       .  S
O228        C238   1.263       .  A
O229        V234   1.900       .  S
O229        C238   1.263       .  A
O230        V234   1.899   1_556  S
O230        C237   1.263   1_556  A
O231        V234   1.899   1_556  S
O231        C236   1.263       .  A
O232        V234   1.899       .  S
O232        C235   1.263       .  A
V233        V234   2.090       .  T
O239        V247   1.899       .  S
O239        C249   1.263       .  A
O240        V247   1.900   1_556  S
O240        C250   1.263       .  A
O241        V247   1.899   1_556  S
O241        C251   1.263   1_556  A
O242        V247   1.899       .  S
O242        C252   1.263       .  A
O243        V248   1.900   1_556  S
O243        C252   1.263   1_556  A
O244        V248   1.900       .  S
O244        C251   1.263       .  A
O245        V248   1.900   1_556  S
O245        C250   1.263       .  A
O246        V248   1.899       .  S
O246        C249   1.263       .  A
V247        V248   2.090       .  T
C253        C254   1.407       .  A
C253        C258   1.407       .  A
C254        C255   1.398       .  A
C254        H267   1.083       .  S
C255        C256   1.400       .  A
C255        H268   1.084       .  S
C256        C257   1.399       .  A
C256        C259   1.439       .  S
C257        C258   1.398       .  A
C257        H269   1.084       .  S
C258        H270   1.083       .  S
C259        C260   1.205       .  T
C260        C261   1.439       .  S
C261        C262   1.400       .  A
C261        C266   1.399       .  A
C262        C263   1.398       .  A
C262        H271   1.084       .  S
C263        C264   1.407       .  A
C263        H272   1.083       .  S
C264        C265   1.407       .  A
C265        C266   1.398       .  A
C265        H273   1.083       .  S
C266        H274   1.084       .  S
C275        C276   1.406       .  A
C275        C280   1.407       .  A
C276        C277   1.397       .  A
C276        H289   1.083       .  S
C277        C278   1.399       .  A
C277        H290   1.084       .  S
C278        C279   1.399       .  A
C278        C281   1.438       .  S
C279        C280   1.398       .  A
C279        H291   1.084       .  S
C280        H292   1.083       .  S
C281        C282   1.205       .  T
C282        C283   1.438       .  S
C283        C284   1.399       .  A
C283        C288   1.399       .  A
C284        C285   1.398       .  A
C284        H293   1.084       .  S
C285        C286   1.407       .  A
C285        H294   1.083       .  S
C286        C287   1.407       .  A
C287        C288   1.398       .  A
C287        H295   1.083       .  S
C288        H296   1.084       .  S
C297        C298   1.407       .  A
C297        C302   1.407       .  A
C298        C299   1.398       .  A
C298        H311   1.083       .  S
C299        C300   1.399       .  A
C299        H312   1.084       .  S
C300        C301   1.399       .  A
C300        C303   1.437       .  S
C301        C302   1.397       .  A
C301        H313   1.084       .  S
C302        H314   1.083       .  S
C303        C304   1.205       .  T
C304        C305   1.438       .  S
C305        C306   1.399       .  A
C305        C310   1.399       .  A
C306        C307   1.397       .  A
C306        H315   1.084       .  S
C307        C308   1.407       .  A
C307        H316   1.083       .  S
C308        C309   1.407       .  A
C309        C310   1.398       .  A
C309        H317   1.083       .  S
C310        H318   1.084       .  S
C319        C320   1.407       .  A
C319        C324   1.407       .  A
C320        C321   1.398       .  A
C320        H333   1.083       .  S
C321        C322   1.399       .  A
C321        H334   1.084       .  S
C322        C323   1.400       .  A
C322        C325   1.439       .  S
C323        C324   1.398       .  A
C323        H335   1.084       .  S
C324        H336   1.083       .  S
C325        C326   1.205       .  T
C326        C327   1.439       .  S
C327        C328   1.399       .  A
C327        C332   1.400       .  A
C328        C329   1.398       .  A
C328        H337   1.084       .  S
C329        C330   1.407       .  A
C329        H338   1.083       .  S
C330        C331   1.407       .  A
C331        C332   1.398       .  A
C331        H339   1.083       .  S
C332        H340   1.084       .  S
C341        C342   1.406       .  A
C341        C346   1.406       .  A
C342        C343   1.398       .  A
C342        H355   1.083       .  S
C343        C344   1.400       .  A
C343        H356   1.084       .  S
C344        C345   1.400       .  A
C344        C347   1.439       .  S
C345        C346   1.398       .  A
C345        H357   1.084       .  S
C346        H358   1.083       .  S
C347        C348   1.206       .  T
C348        C349   1.439       .  S
C349        C350   1.399       .  A
C349        C354   1.400       .  A
C350        C351   1.398       .  A
C350        H359   1.084       .  S
C351        C352   1.407       .  A
C351        H360   1.083       .  S
C352        C353   1.407       .  A
C353        C354   1.399       .  A
C353        H361   1.083       .  S
C354        H362   1.084       .  S
C363        C364   1.406       .  A
C363        C368   1.406       .  A
C364        C365   1.397       .  A
C364        H377   1.083       .  S
C365        C366   1.399       .  A
C365        H378   1.084       .  S
C366        C367   1.400       .  A
C366        C369   1.437       .  S
C367        C368   1.398       .  A
C367        H379   1.084       .  S
C368        H380   1.083       .  S
C369        C370   1.205       .  T
C370        C371   1.437       .  S
C371        C372   1.399       .  A
C371        C376   1.399       .  A
C372        C373   1.397       .  A
C372        H381   1.084       .  S
C373        C374   1.407       .  A
C373        H382   1.083       .  S
C374        C375   1.407       .  A
C375        C376   1.398       .  A
C375        H383   1.083       .  S
C376        H384   1.084       .  S
C385        C386   1.406       .  A
C385        C390   1.407       .  A
C386        C387   1.398       .  A
C386        H399   1.083       .  S
C387        C388   1.399       .  A
C387        H400   1.084       .  S
C388        C389   1.399       .  A
C388        C391   1.438       .  S
C389        C390   1.398       .  A
C389        H401   1.084       .  S
C390        H402   1.083       .  S
C391        C392   1.205       .  T
C392        C393   1.438       .  S
C393        C394   1.399       .  A
C393        C398   1.399       .  A
C394        C395   1.398       .  A
C394        H403   1.084       .  S
C395        C396   1.407       .  A
C395        H404   1.083       .  S
C396        C397   1.407       .  A
C397        C398   1.398       .  A
C397        H405   1.083       .  S
C398        H406   1.084       .  S
C407        C408   1.407       .  A
C407        C412   1.407       .  A
C408        C409   1.398       .  A
C408        H421   1.083       .  S
C409        C410   1.400       .  A
C409        H422   1.084       .  S
C410        C411   1.399       .  A
C410        C413   1.439       .  S
C411        C412   1.398       .  A
C411        H423   1.084       .  S
C412        H424   1.083       .  S
C413        C414   1.205       .  T
C414        C415   1.439       .  S
C415        C416   1.400       .  A
C415        C420   1.399       .  A
C416        C417   1.398       .  A
C416        H425   1.084       .  S
C417        C418   1.407       .  A
C417        H426   1.083       .  S
C418        C419   1.407       .  A
C419        C420   1.398       .  A
C419        H427   1.083       .  S
C420        H428   1.084       .  S
C429        C430   1.407       .  A
C429        C434   1.406   1_554  A
C430        C431   1.399       .  A
C430        H443   1.083       .  S
C431        C432   1.400       .  A
C431        H444   1.084       .  S
C432        C433   1.400   1_554  A
C432        C435   1.440       .  S
C433        C434   1.398       .  A
C433        H445   1.084       .  S
C434        H446   1.083       .  S
C435        C436   1.206       .  T
C436        C437   1.440       .  S
C437        C438   1.400   1_554  A
C437        C442   1.400       .  A
C438        C439   1.399       .  A
C438        H447   1.084       .  S
C439        C440   1.406   1_556  A
C439        H448   1.083       .  S
C440        C441   1.406       .  A
C441        C442   1.398       .  A
C441        H449   1.083       .  S
C442        H450   1.084       .  S
C451        C452   1.407   1_554  A
C451        C456   1.407       .  A
C452        C453   1.398       .  A
C452        H465   1.083       .  S
C453        C454   1.399       .  A
C453        H466   1.084       .  S
C454        C455   1.399   1_556  A
C454        C457   1.439       .  S
C455        C456   1.398       .  A
C455        H467   1.084       .  S
C456        H468   1.083       .  S
C457        C458   1.206       .  T
C458        C459   1.439   1_556  S
C459        C460   1.400       .  A
C459        C464   1.400   1_554  A
C460        C461   1.398       .  A
C460        H469   1.084       .  S
C461        C462   1.406       .  A
C461        H470   1.083       .  S
C462        C463   1.406   1_554  A
C463        C464   1.398       .  A
C463        H471   1.083       .  S
C464        H472   1.084       .  S
C473        C474   1.406       .  A
C473        C478   1.406   1_554  A
C474        C475   1.398       .  A
C474        H487   1.083       .  S
C475        C476   1.400       .  A
C475        H488   1.084       .  S
C476        C477   1.400   1_554  A
C476        C479   1.440       .  S
C477        C478   1.399       .  A
C477        H489   1.084       .  S
C478        H490   1.083       .  S
C479        C480   1.206       .  T
C480        C481   1.440       .  S
C481        C482   1.399   1_554  A
C481        C486   1.400       .  A
C482        C483   1.398       .  A
C482        H491   1.084       .  S
C483        C484   1.407   1_556  A
C483        H492   1.083       .  S
C484        C485   1.407       .  A
C485        C486   1.399       .  A
C485        H493   1.083       .  S
C486        H494   1.084       .  S
C495        C496   1.407       .  A
C495        C500   1.407   1_554  A
C496        C497   1.398       .  A
C496        H509   1.083       .  S
C497        C498   1.399       .  A
C497        H510   1.084       .  S
C498        C499   1.400   1_554  A
C498        C501   1.439       .  S
C499        C500   1.398       .  A
C499        H511   1.084       .  S
C500        H512   1.083       .  S
C501        C502   1.206       .  T
C502        C503   1.439       .  S
C503        C504   1.399   1_554  A
C503        C508   1.400       .  A
C504        C505   1.398       .  A
C504        H513   1.084       .  S
C505        C506   1.407   1_556  A
C505        H514   1.083       .  S
C506        C507   1.407       .  A
C507        C508   1.399       .  A
C507        H515   1.083       .  S
C508        H516   1.084       .  S
