geometry optimzed in LAMMPS
_audit_creation_date              2020-12-01 
_audit_creation_method            'lammps2cif' 
_symmetry_space_group_name_H-M    'P1' 
_symmetry_Int_Tables_number       1 
_symmetry_cell_setting            triclinic 
loop_ 
_symmetry_equiv_pos_as_xyz 
  x,y,z 
_cell_length_a                    46.98698451 
_cell_length_b                    46.9196446572971 
_cell_length_c                    39.24477701651098 
_cell_angle_alpha                 90.10537722695025 
_cell_angle_beta                  89.95686127736805 
_cell_angle_gamma                 119.98191714882988 
loop_ 
_atom_site_label 
_atom_site_type_symbol 
_atom_site_fract_x 
_atom_site_fract_y 
_atom_site_fract_z 
_atom_site_charge 
C1          C  0.49961476  0.95255581  0.05461184    -0.10900
C2          C  0.46872863  0.94357576  0.06801334    -0.04700
C3          C  0.44913442  0.95532113  0.05430988    -0.10900
C4          C  0.46071540  0.97699062  0.02617165     0.10100
C5          C  0.49232773  0.98678364  0.01250656    -0.02700
C6          C  0.51201579  0.97475153  0.02696586     0.09900
C7          C  0.54331597  0.98501846  0.01327742    -0.12700
C8          C  0.55512052  0.00666289  0.98573144    -0.12700
C9          C  0.53583737  0.01840674  0.97063280     0.09900
C10         C  0.50409191  0.00831465  0.98406625    -0.02700
C11         C  0.44168215  0.98919088  0.01146806    -0.12800
C12         C  0.45319908  0.01026000  0.98348170    -0.12800
C13         C  0.48418841  0.01993490  0.96929176     0.10100
C14         C  0.49591099  0.04096591  0.94068419    -0.10900
C15         C  0.52692186  0.05016819  0.92740871    -0.04700
C16         C  0.54724629  0.03979635  0.94224461    -0.10900
H17         H  0.55894501  0.97640840  0.02386461     0.07300
H18         H  0.57936089  0.01381591  0.97603146     0.07300
H19         H  0.41765299  0.98244529  0.02148127     0.07500
H20         H  0.43751769  0.01880415  0.97289044     0.07500
H21         H  0.45931498  0.92626916  0.08904407     0.04000
H22         H  0.53604477  0.06699839  0.90596944     0.04000
O23         O  0.52604285  0.73089537  0.28398607    -0.71800
O24         O  0.52072422  0.78676174  0.21779853    -0.72000
O25         O  0.52236803  0.73072492  0.21570908    -0.71900
O26         O  0.52400297  0.78653606  0.28598232    -0.71900
O27         O  0.57726783  0.81476409  0.28373546    -0.71900
O28         O  0.57557943  0.75833295  0.21212449    -0.71900
O29         O  0.57396568  0.81516433  0.21518340    -0.71800
O30         O  0.57931885  0.75819474  0.28071456    -0.72000
V31         V  0.52441540  0.75928685  0.25077869     1.35200
V32         V  0.57558697  0.78611391  0.24798787     1.35200
C33         C  0.55348539  0.73508969  0.29384316     0.77400
C34         C  0.54636746  0.81060757  0.20526914     0.77500
C35         C  0.54835890  0.73485720  0.20169146     0.77400
C36         C  0.55065062  0.81007658  0.29702487     0.77300
O37         O  0.42503957  0.18147971  0.78025524    -0.71800
O38         O  0.42482816  0.24090876  0.71414717    -0.72000
O39         O  0.42465881  0.18329981  0.71173570    -0.71900
O40         O  0.42522726  0.23919940  0.78264153    -0.71900
O41         O  0.47856793  0.26558788  0.78211100    -0.71900
O42         O  0.47802146  0.21019823  0.71154903    -0.71900
O43         O  0.47817271  0.26708963  0.71374487    -0.71800
O44         O  0.47838577  0.20849415  0.78005965    -0.72000
V45         V  0.42592957  0.21171128  0.74721115     1.35200
V46         V  0.47719509  0.23727913  0.74690267     1.35200
C47         C  0.45185281  0.18496018  0.79148686     0.77400
C48         C  0.45157369  0.26404866  0.70252953     0.77500
C49         C  0.45137026  0.18745326  0.69942318     0.77400
C50         C  0.45211133  0.26207507  0.79433866     0.77300
O51         O  0.81761828  0.23999014  0.78748149    -0.71800
O52         O  0.75986102  0.18268362  0.71870090    -0.72000
O53         O  0.81648341  0.24128172  0.71909017    -0.71900
O54         O  0.76106075  0.18142117  0.78735131    -0.71900
O55         O  0.73399847  0.20771238  0.79004171    -0.71900
O56         O  0.78779283  0.26591246  0.72065635    -0.71900
O57         O  0.73183046  0.20794773  0.72157446    -0.71800
O58         O  0.78969208  0.26543770  0.78890872    -0.72000
V59         V  0.78822032  0.21178260  0.75318467     1.35200
V60         V  0.76137147  0.23619083  0.75522240     1.35200
C61         C  0.81343908  0.26259299  0.79980027     0.77400
C62         C  0.73594086  0.18566171  0.70839487     0.77500
C63         C  0.81161661  0.26392348  0.70833983     0.77400
C64         C  0.73828505  0.18469859  0.80061290     0.77300
O65         O  0.26830928  0.79081988  0.28067908    -0.71800
O66         O  0.20856451  0.73514773  0.21367407    -0.72000
O67         O  0.26512163  0.79194915  0.21242072    -0.71900
O68         O  0.21135106  0.73371894  0.28173498    -0.71900
O69         O  0.18380206  0.75942465  0.28513073    -0.71900
O70         O  0.23952002  0.81958232  0.21679639    -0.71900
O71         O  0.18190687  0.76182632  0.21650288    -0.71800
O72         O  0.24147789  0.81718187  0.28538004    -0.72000
V73         V  0.23778940  0.76348960  0.24725999     1.35200
V74         V  0.21216013  0.78904306  0.25088432     1.35200
C75         C  0.26521402  0.81341216  0.29463784     0.77400
C76         C  0.18522581  0.73895563  0.20340256     0.77500
C77         C  0.26160562  0.81566990  0.20270053     0.77400
C78         C  0.18815307  0.73618750  0.29505923     0.77300
C79         C  0.95510498  0.50495663  0.94392035    -0.10900
C80         C  0.94386764  0.47309436  0.93172946    -0.04700
C81         C  0.95363778  0.45232024  0.94661098    -0.10900
C82         C  0.97559458  0.46359867  0.97445804     0.10100
C83         C  0.98740794  0.49600310  0.98702166    -0.02700
C84         C  0.97725778  0.51684305  0.97162476     0.09900
C85         C  0.98965564  0.54899182  0.98416152    -0.12700
C86         C  0.01118070  0.56033686  0.01177423    -0.12700
C87         C  0.02099807  0.53989969  0.02781911     0.09900
C88         C  0.00918537  0.50749216  0.01522666    -0.02700
C89         C  0.98603235  0.44342492  0.99000351    -0.12800
C90         C  0.00760816  0.45479254  0.01757742    -0.12800
C91         C  0.01929177  0.48662943  0.03065718     0.10100
C92         C  0.04087382  0.49828779  0.05880016    -0.10900
C93         C  0.05164697  0.52991141  0.07138422    -0.04700
C94         C  0.04227195  0.55087106  0.05624735    -0.10900
H95         H  0.98280566  0.56566893  0.97267028     0.07300
H96         H  0.01992369  0.58522460  0.02062952     0.07300
H97         H  0.97758494  0.41866093  0.98091414     0.07500
H98         H  0.01489167  0.43832777  0.02877645     0.07500
H99         H  0.92646036  0.46395188  0.91075660     0.04000
H100        H  0.06860290  0.53881439  0.09274808     0.04000
C101        C  0.95294816  0.45193446  0.55648826    -0.10900
C102        C  0.94228783  0.47301037  0.56866044    -0.04700
C103        C  0.95553493  0.50520311  0.55675275    -0.10900
C104        C  0.98030435  0.51697917  0.53143584     0.10100
C105        C  0.99136610  0.49582240  0.51856192    -0.02700
C106        C  0.97775801  0.46319009  0.53126132     0.09900
C107        C  0.98922059  0.44279083  0.51835800    -0.12700
C108        C  0.01361639  0.45412436  0.49337064    -0.12700
C109        C  0.02730009  0.48620303  0.48032892     0.09900
C110        C  0.01608680  0.50732091  0.49296365    -0.02700
C111        C  0.99432747  0.54920863  0.51874751    -0.12800
C112        C  0.01863513  0.56052673  0.49364026    -0.12800
C113        C  0.02969882  0.53997723  0.48021556     0.10100
C114        C  0.05443450  0.55120640  0.45481124    -0.10900
C115        C  0.06490864  0.52992148  0.44268262    -0.04700
C116        C  0.05197976  0.49791174  0.45498342    -0.10900
H117        H  0.97935835  0.41785385  0.52753552     0.07300
H118        H  0.02167471  0.43751344  0.48424160     0.07300
H119        H  0.98657490  0.56595292  0.52821915     0.07500
H120        H  0.02876586  0.58560434  0.48483873     0.07500
H121        H  0.92318368  0.46412780  0.58796559     0.04000
H122        H  0.08380141  0.53855870  0.42316979     0.04000
O123        O  0.24335122  0.42770685  0.28165213    -0.71800
O124        O  0.18084993  0.42579139  0.21799004    -0.72000
O125        O  0.23892358  0.42689658  0.21296917    -0.71900
O126        O  0.18528851  0.42632106  0.28633755    -0.71900
O127        O  0.21140180  0.47974520  0.28612727    -0.71900
O128        O  0.26448364  0.48027893  0.21276601    -0.71900
O129        O  0.20717237  0.47921080  0.21783979    -0.71800
O130        O  0.26875987  0.48108765  0.28106119    -0.72000
V131        V  0.21260946  0.42765691  0.24971417     1.35200
V132        V  0.23741628  0.47897063  0.24942162     1.35200
C133        C  0.26658576  0.45491318  0.29245935     0.77400
C134        C  0.18348544  0.45241887  0.20713740     0.77500
C135        C  0.26090561  0.45378058  0.20031105     0.77400
C136        C  0.18926647  0.45298422  0.29876671     0.77300
O137        O  0.79320067  0.52804283  0.78722272    -0.71800
O138        O  0.73510003  0.52391809  0.71798254    -0.72000
O139        O  0.79354793  0.52712461  0.71871998    -0.71900
O140        O  0.73485626  0.52454385  0.78617413    -0.71900
O141        O  0.75894789  0.57785972  0.78644612    -0.71900
O142        O  0.81812560  0.58048050  0.71760255    -0.71900
O143        O  0.75883910  0.57721676  0.71761574    -0.71800
O144        O  0.81829065  0.58145499  0.78624249    -0.72000
V145        V  0.76472984  0.52704307  0.75248827     1.35200
V146        V  0.78810239  0.57830355  0.75196178     1.35200
C147        C  0.81557329  0.55532905  0.79862039     0.77400
C148        C  0.73674559  0.54974157  0.70613027     0.77500
C149        C  0.81577899  0.55399049  0.70649066     0.77400
C150        C  0.73676068  0.55046465  0.79807087     0.77300
C151        C  0.49280023  0.55084556  0.04090898    -0.10900
C152        C  0.45989138  0.53155068  0.05053651    -0.04700
C153        C  0.44040199  0.49919889  0.03910324    -0.10900
C154        C  0.45396189  0.48563353  0.01649214     0.10100
C155        C  0.48735765  0.50496894  0.00619892    -0.02700
C156        C  0.50691655  0.53764387  0.01857471     0.09900
C157        C  0.53984515  0.55626412  0.00805646    -0.12700
C158        C  0.55357216  0.54298497  0.98611205    -0.12700
C159        C  0.53478655  0.51071742  0.97364256     0.09900
C160        C  0.50129609  0.49151420  0.98368891    -0.02700
C161        C  0.43505225  0.45350070  0.00370493    -0.12800
C162        C  0.44870949  0.44031684  0.98153811    -0.12800
C163        C  0.48176081  0.45881112  0.97141347     0.10100
C164        C  0.49608212  0.44539483  0.94971468    -0.10900
C165        C  0.52911198  0.46438531  0.94057329    -0.04700
C166        C  0.54860602  0.49678379  0.95182078    -0.10900
H167        H  0.55531175  0.58130975  0.01676865     0.07300
H168        H  0.57915919  0.55819646  0.97913274     0.07300
H169        H  0.40948354  0.43829241  0.01077400     0.07500
H170        H  0.43320302  0.41536037  0.97257212     0.07500
H171        H  0.44941322  0.54169081  0.06816142     0.04000
H172        H  0.53972421  0.45388106  0.92358295     0.04000
C173        C  0.45392355  0.49896624  0.44362923    -0.10900
C174        C  0.47582419  0.52948161  0.42940603    -0.04700
C175        C  0.50761714  0.54890328  0.44210882    -0.10900
C176        C  0.51836764  0.53748982  0.46978227     0.10100
C177        C  0.49661076  0.50629479  0.48430200    -0.02700
C178        C  0.46421553  0.48689586  0.47120743     0.09900
C179        C  0.44312980  0.45615334  0.48604155    -0.12700
C180        C  0.45374182  0.44439975  0.51300298    -0.12700
C181        C  0.48567446  0.46314905  0.52627415     0.09900
C182        C  0.50725746  0.49454539  0.51202801    -0.02700
C183        C  0.55027045  0.55627660  0.48309897    -0.12800
C184        C  0.56074657  0.54471118  0.51026870    -0.12800
C185        C  0.53966322  0.51398465  0.52509157     0.10100
C186        C  0.55017214  0.50181414  0.55233692    -0.10900
C187        C  0.52860949  0.47093796  0.56603683    -0.04700
C188        C  0.49683179  0.45138989  0.55333049    -0.10900
H189        H  0.41831451  0.44085724  0.47669653     0.07300
H190        H  0.43668960  0.42048489  0.52348376     0.07300
H191        H  0.56747694  0.58004811  0.47243750     0.07500
H192        H  0.58558195  0.56002075  0.51955130     0.07500
H193        H  0.46762393  0.53874216  0.40850020     0.04000
H194        H  0.53708221  0.46149381  0.58652668     0.04000
C195        C  0.50322226  0.94897766  0.44993470    -0.10900
C196        C  0.47121331  0.93678655  0.43812392    -0.04700
C197        C  0.45104007  0.94843442  0.45049859    -0.10900
C198        C  0.46338236  0.97370213  0.47530399     0.10100
C199        C  0.49576148  0.98596465  0.48816891    -0.02700
C200        C  0.51577653  0.97350809  0.47549981     0.09900
C201        C  0.54762273  0.98587292  0.48868310    -0.12700
C202        C  0.55968320  0.01002251  0.51402489    -0.12700
C203        C  0.54031427  0.02264583  0.52700181     0.09900
C204        C  0.50806524  0.01058325  0.51387895    -0.02700
C205        C  0.44418779  0.98664365  0.48792498    -0.12800
C206        C  0.45644569  0.01115697  0.51280961    -0.12800
C207        C  0.48816190  0.02326546  0.52624469     0.10100
C208        C  0.50062156  0.04779784  0.55174369    -0.10900
C209        C  0.53224261  0.05929293  0.56447422    -0.04700
C210        C  0.55233290  0.04737184  0.55242996    -0.10900
H211        H  0.56343267  0.97687410  0.47949320     0.07300
H212        H  0.58436366  0.01878001  0.52338571     0.07300
H213        H  0.41947722  0.97786207  0.47866095     0.07500
H214        H  0.44073852  0.02039944  0.52167107     0.07500
H215        H  0.46170023  0.91760667  0.41881597     0.04000
H216        H  0.54164335  0.07837431  0.58388114     0.04000
C217        C  0.68776155  0.57157948  0.86058255    -0.10900
C218        C  0.66655087  0.54052564  0.87492631     0.06300
C219        C  0.66913674  0.51338789  0.86397790    -0.09600
C220        C  0.69210370  0.51701251  0.83938447    -0.11300
C221        C  0.71328922  0.54789389  0.82488967    -0.01100
C222        C  0.71108735  0.57527878  0.83590614    -0.10200
C223        C  0.64043116  0.53534750  0.89982410     0.06300
H224        H  0.65273835  0.48899515  0.87380219     0.08200
H225        H  0.69302606  0.49534347  0.83151298     0.11700
H226        H  0.72704351  0.59937230  0.82517338     0.11900
H227        H  0.68633861  0.59296229  0.86849226     0.08200
C228        C  0.63260417  0.51285722  0.92674167    -0.10900
C229        C  0.60402876  0.50253303  0.94586335    -0.10200
C230        C  0.58283340  0.51473700  0.93878549    -0.01100
C231        C  0.59188904  0.53920465  0.91386583    -0.11300
C232        C  0.62054552  0.54953746  0.89458349    -0.09700
H233        H  0.64773919  0.50193575  0.93187959     0.08200
H234        H  0.59734728  0.48344667  0.96479292     0.11900
H235        H  0.57556795  0.54851311  0.90764510     0.11700
H236        H  0.62577655  0.56675347  0.87397052     0.08200
C237        C  0.66761246  0.51376464  0.64164594    -0.10900
C238        C  0.66642319  0.54161187  0.63058608     0.06300
C239        C  0.68887089  0.57251829  0.64434901    -0.09600
C240        C  0.71217061  0.57543928  0.66855684    -0.11300
C241        C  0.71309259  0.54742617  0.67974296    -0.01100
C242        C  0.69054971  0.51660971  0.66594326    -0.10200
C243        C  0.64065622  0.53751510  0.60591560     0.06300
H244        H  0.68843903  0.59436644  0.63629266     0.08200
H245        H  0.72917662  0.59951100  0.67878989     0.11700
H246        H  0.69045519  0.49451303  0.67407628     0.11900
H247        H  0.65022212  0.48954095  0.63202106     0.08200
C248        C  0.63334493  0.51636824  0.57779835    -0.10900
C249        C  0.60520979  0.50714234  0.55828979    -0.10200
C250        C  0.58392440  0.51897834  0.56641269    -0.01100
C251        C  0.59232194  0.54197441  0.59287147    -0.11300
C252        C  0.62065932  0.55137548  0.61239546    -0.09700
H253        H  0.64854292  0.50564370  0.57197920     0.08200
H254        H  0.59887953  0.48908684  0.53822002     0.11900
H255        H  0.57583533  0.55090414  0.59983055     0.11700
H256        H  0.62560663  0.56756040  0.63400801     0.08200
C257        C  0.37148646  0.44900752  0.10039619    -0.10900
C258        C  0.35025504  0.46139018  0.09378788     0.06300
C259        C  0.35593168  0.48105604  0.06475628    -0.09600
C260        C  0.38388542  0.49074425  0.04470487    -0.11300
C261        C  0.40657338  0.48073991  0.05309826    -0.01100
C262        C  0.39954544  0.45875481  0.08025330     0.00600
C263        C  0.32547154  0.45810266  0.11950384     0.06300
H264        H  0.33975940  0.49060355  0.05879333     0.08200
H265        H  0.38904654  0.50795775  0.02407795     0.11700
H266        H  0.41706720  0.45122112  0.08747032     0.11900
H267        H  0.36785361  0.43399080  0.12267215     0.08200
C268        C  0.32428147  0.48623946  0.12960467    -0.10900
C269        C  0.30309364  0.48456602  0.15547792    -0.10200
C270        C  0.28224435  0.45464079  0.17187448    -0.01100
C271        C  0.28282973  0.42621407  0.16137562    -0.11300
C272        C  0.30447848  0.42799428  0.13562820    -0.09700
H273        H  0.34054993  0.50990661  0.11815064     0.08200
H274        H  0.30331254  0.50692669  0.16288238     0.11900
H275        H  0.26706630  0.40278427  0.17352486     0.11700
H276        H  0.30491531  0.40592354  0.12838708     0.08200
C277        C  0.37013251  0.48390382  0.41994405    -0.10900
C278        C  0.36367503  0.46499901  0.39012470     0.06300
C279        C  0.38464119  0.45280150  0.38141499    -0.09600
C280        C  0.41290210  0.46148380  0.40076161    -0.11300
C281        C  0.42024348  0.48197736  0.42936664    -0.01100
C282        C  0.39815716  0.49228436  0.43940270    -0.10200
C283        C  0.33762829  0.46147027  0.36620475     0.06300
H284        H  0.38040604  0.43850089  0.35837803     0.08200
H285        H  0.43010729  0.45398937  0.39219115     0.11700
H286        H  0.40378334  0.50863840  0.46100342     0.11900
H287        H  0.35427582  0.49348306  0.42728591     0.08200
C288        C  0.33611637  0.48947874  0.35654419    -0.10900
C289        C  0.31308030  0.48714790  0.33262768    -0.10200
C290        C  0.29068487  0.45666918  0.31797521    -0.01100
C291        C  0.29182680  0.42847742  0.32794407    -0.11300
C292        C  0.31531598  0.43091950  0.35164149    -0.09700
H293        H  0.35333790  0.51341187  0.36695198     0.08200
H294        H  0.31288118  0.50936122  0.32557075     0.11900
H295        H  0.27487302  0.40466830  0.31713194     0.11700
H296        H  0.31603422  0.40897592  0.35867600     0.08200
C297        C  0.11628871  0.42741029  0.35762907    -0.10900
C298        C  0.12697795  0.45577610  0.37775420     0.06300
C299        C  0.15898486  0.48232025  0.37301683    -0.09600
C300        C  0.17935451  0.48112070  0.34774427    -0.11300
C301        C  0.16842208  0.45311154  0.32704538    -0.01100
C302        C  0.13697275  0.42593865  0.33276733    -0.10200
C303        C  0.10413264  0.45934923  0.40126693     0.06300
H304        H  0.16774586  0.50463972  0.38786296     0.08200
H305        H  0.20354416  0.50234585  0.34405546     0.11700
H306        H  0.12792625  0.40403700  0.31717899     0.11900
H307        H  0.09173776  0.40661872  0.36078036     0.08200
C308        C  0.07320464  0.45293729  0.38954537    -0.10900
C309        C  0.05440288  0.46266479  0.40880883    -0.10200
C310        C  0.06596412  0.47845134  0.44030941    -0.01100
C311        C  0.09564293  0.48261990  0.45322872    -0.11300
C312        C  0.11461062  0.47318279  0.43385360    -0.09700
H313        H  0.06471913  0.44270343  0.36438484     0.08200
H314        H  0.03197704  0.46002372  0.39806363     0.11900
H315        H  0.10525136  0.49536776  0.47716238     0.11700
H316        H  0.13828108  0.47826727  0.44353114     0.08200
C317        C  0.89434749  0.53223280  0.57683216    -0.10900
C318        C  0.90435808  0.54555290  0.60968436     0.06300
C319        C  0.93446348  0.55047052  0.62234256    -0.09600
C320        C  0.95289066  0.53989268  0.60358246    -0.11300
C321        C  0.94180231  0.52481815  0.57165763    -0.01100
C322        C  0.91294705  0.52199895  0.55796571    -0.10200
C323        C  0.88133564  0.54962762  0.63243278     0.06300
H324        H  0.94248473  0.56022967  0.64775391     0.08200
H325        H  0.97466304  0.54149364  0.61490401     0.11700
H326        H  0.90366091  0.50979692  0.53371167     0.11900
H327        H  0.87122568  0.52816207  0.56653732     0.08200
C328        C  0.89135981  0.57857212  0.65143177    -0.10900
C329        C  0.86974731  0.58073365  0.67471065    -0.10200
C330        C  0.83812179  0.55364587  0.67997103    -0.01100
C331        C  0.82816466  0.52495409  0.66062873    -0.11300
C332        C  0.84937271  0.52307856  0.63697910    -0.09700
H333        H  0.91595260  0.59933731  0.64844232     0.08200
H334        H  0.87810179  0.60308726  0.68937203     0.11900
H335        H  0.80395001  0.50370101  0.66402760     0.11700
H336        H  0.84115946  0.50033781  0.62304312     0.08200
C337        C  0.14722282  0.48362372  0.14133687    -0.10900
C338        C  0.11561031  0.45656083  0.13651435     0.06300
C339        C  0.10619736  0.42755039  0.15502750    -0.09600
C340        C  0.12837328  0.42563576  0.17760943    -0.11300
C341        C  0.15994473  0.45297001  0.18248722    -0.01100
C342        C  0.16901374  0.48191255  0.16411484    -0.10200
C343        C  0.09271265  0.45992573  0.11311525     0.06300
H344        H  0.08184628  0.40641991  0.15186467     0.08200
H345        H  0.12068263  0.40310551  0.19166705     0.11700
H346        H  0.19310761  0.50340598  0.16733756     0.11900
H347        H  0.15490168  0.50649284  0.12792887     0.08200
C348        C  0.10402377  0.47499288  0.08121506    -0.10900
C349        C  0.08551364  0.48489570  0.06201870    -0.10200
C350        C  0.05538143  0.47984725  0.07436325    -0.01100
C351        C  0.04284365  0.46274340  0.10501653    -0.11300
C352        C  0.06129897  0.45254968  0.12419441    -0.09700
H353        H  0.12805443  0.48072598  0.07202016     0.08200
H354        H  0.09566714  0.49844506  0.03862978     0.11900
H355        H  0.01979594  0.45914248  0.11506837     0.11700
H356        H  0.05216140  0.44119668  0.14877909     0.08200
C357        C  0.93139583  0.54682514  0.87698471    -0.10900
C358        C  0.90485912  0.54732925  0.89289916     0.06300
C359        C  0.89794825  0.53787188  0.92723038    -0.09600
C360        C  0.91609812  0.52635580  0.94475441    -0.11300
C361        C  0.94117411  0.52386785  0.92808295    -0.01100
C362        C  0.94920930  0.53484130  0.89436645    -0.10200
C363        C  0.88157677  0.55260566  0.87221276     0.06300
H364        H  0.87751055  0.53795119  0.93994173     0.08200
H365        H  0.90934428  0.51755930  0.97063927     0.11700
H366        H  0.96820525  0.53260735  0.88103170     0.11900
H367        H  0.93684370  0.55350385  0.85040605     0.08200
C368        C  0.84824187  0.52827976  0.87190720    -0.10900
C369        C  0.82670123  0.52984465  0.84856963    -0.10200
C370        C  0.83787051  0.55610345  0.82552346    -0.01100
C371        C  0.87077561  0.58155581  0.82712463    -0.11300
C372        C  0.89262134  0.57956619  0.85001235    -0.09700
H373        H  0.83921632  0.50709935  0.88849890     0.08200
H374        H  0.80137050  0.51005250  0.84799854     0.11900
H375        H  0.87991945  0.60204054  0.80957797     0.11700
H376        H  0.91828293  0.59858279  0.84981403     0.08200
C377        C  0.36845380  0.88017913  0.42323935    -0.10900
C378        C  0.36075059  0.89505837  0.39651014     0.06300
C379        C  0.37998613  0.92932798  0.39210073    -0.09600
C380        C  0.40814204  0.94777310  0.41207053    -0.11300
C381        C  0.41710413  0.93221525  0.43689450    -0.01100
C382        C  0.39635956  0.89856852  0.44318844    -0.10200
C383        C  0.33539715  0.87421485  0.37105576     0.06300
H384        H  0.37468431  0.94138621  0.37161711     0.08200
H385        H  0.42417503  0.97362504  0.40649298     0.11700
H386        H  0.40307210  0.88610138  0.46200661     0.11900
H387        H  0.35379515  0.85391126  0.42754637     0.08200
C388        C  0.31253351  0.88257987  0.35841911    -0.10900
C389        C  0.28933370  0.86274179  0.33380220    -0.10200
C390        C  0.28898515  0.83450732  0.32108562    -0.01100
C391        C  0.31207055  0.82645125  0.33362541    -0.11300
C392        C  0.33487925  0.84596497  0.35830209    -0.09700
H393        H  0.31246878  0.90428673  0.36777187     0.08200
H394        H  0.27191773  0.86962264  0.32452341     0.11900
H395        H  0.31258899  0.80495414  0.32432513     0.11700
H396        H  0.35260761  0.83925116  0.36698441     0.08200
C397        C  0.06468489  0.61925212  0.11936134    -0.10900
C398        C  0.09559051  0.64310897  0.10695608     0.06300
C399        C  0.10585313  0.63843253  0.07479273    -0.09600
C400        C  0.08674643  0.60935260  0.05657984    -0.11300
C401        C  0.05714411  0.58453253  0.07027882    -0.01100
C402        C  0.04570589  0.59001269  0.10123379    -0.10200
C403        C  0.11896536  0.67007732  0.12948089     0.06300
H404        H  0.12951613  0.65654092  0.06462207     0.08200
H405        H  0.09610896  0.60524650  0.03297100     0.11700
H406        H  0.02314757  0.57078168  0.11238013     0.11900
H407        H  0.05638562  0.62208805  0.14421296     0.08200
C408        C  0.10931126  0.68908276  0.14882042    -0.10900
C409        C  0.13116760  0.71253013  0.17212625    -0.10200
C410        C  0.16268671  0.71672296  0.17689933    -0.01100
C411        C  0.17235053  0.69805531  0.15709201    -0.11300
C412        C  0.15083661  0.67515281  0.13359130    -0.09700
H413        H  0.08480371  0.68552880  0.14613053     0.08200
H414        H  0.12309473  0.72655925  0.18714484     0.11900
H415        H  0.19651124  0.70079145  0.16011425     0.11700
H416        H  0.15875416  0.66048430  0.11947844     0.08200
C417        C  0.15446415  0.66472929  0.35685197    -0.10900
C418        C  0.12750825  0.66538290  0.37152014     0.06300
C419        C  0.12010067  0.68946981  0.36046425    -0.09600
C420        C  0.13977384  0.71277912  0.33576115    -0.11300
C421        C  0.16693850  0.71212993  0.32140934    -0.01100
C422        C  0.17382651  0.68767464  0.33220694    -0.10200
C423        C  0.10744707  0.64037769  0.39778893     0.06300
H424        H  0.09942793  0.69052373  0.37124199     0.08200
H425        H  0.13371289  0.73121961  0.32786730     0.11700
H426        H  0.19431075  0.68618143  0.32158327     0.11900
H427        H  0.16041951  0.64606922  0.36418914     0.08200
C428        C  0.07290406  0.62227681  0.39586104    -0.10900
C429        C  0.05488148  0.59458957  0.41672746    -0.10200
C430        C  0.07112183  0.58491692  0.44006379    -0.01100
C431        C  0.10528594  0.60456202  0.44378388    -0.11300
C432        C  0.12320758  0.63195551  0.42297691    -0.09700
H433        H  0.06008720  0.62810629  0.37665186     0.08200
H434        H  0.02859688  0.57946262  0.41302700     0.11900
H435        H  0.11834994  0.59740428  0.46137096     0.11700
H436        H  0.14971080  0.64570860  0.42548976     0.08200
C437        C  0.68986715  0.11442840  0.64645454    -0.10900
C438        C  0.66799831  0.12293131  0.63134488     0.06300
C439        C  0.66910782  0.15218888  0.64152859    -0.09600
C440        C  0.69126807  0.17237374  0.66634670    -0.11300
C441        C  0.71316280  0.16403803  0.68155398    -0.01100
C442        C  0.71249719  0.13498672  0.67115790    -0.10200
C443        C  0.64274207  0.10110271  0.60626180     0.06300
H444        H  0.65217977  0.15910955  0.63085744     0.08200
H445        H  0.69113325  0.19456684  0.67372429     0.11700
H446        H  0.72906146  0.12792376  0.68248608     0.11900
H447        H  0.68947813  0.09197348  0.63909783     0.08200
C448        C  0.63611173  0.11486088  0.57768736    -0.10900
C449        C  0.60803589  0.09613041  0.55804424    -0.10200
C450        C  0.58611561  0.06322616  0.56642287    -0.01100
C451        C  0.59394231  0.04856437  0.59322251    -0.11300
C452        C  0.62223395  0.06735154  0.61292777    -0.09700
H453        H  0.65170840  0.14068546  0.57169584     0.08200
H454        H  0.60218123  0.10792821  0.53771502     0.11900
H455        H  0.57698889  0.02333371  0.60039662     0.11700
H456        H  0.62665774  0.05617081  0.63488336     0.08200
C457        C  0.93033254  0.38461854  0.62092796    -0.10900
C458        C  0.89787928  0.36209165  0.61115682     0.06300
C459        C  0.88600086  0.36698696  0.58012865    -0.09600
C460        C  0.90534932  0.39497341  0.56045268    -0.11300
C461        C  0.93691728  0.41850245  0.57141382    -0.01100
C462        C  0.94962141  0.41273339  0.60129036    -0.10200
C463        C  0.87544051  0.33563865  0.63480744     0.06300
H464        H  0.86118249  0.34986269  0.57186837     0.08200
H465        H  0.89494797  0.39933743  0.53779970     0.11700
H466        H  0.97364212  0.43104375  0.61053539     0.11900
H467        H  0.93998607  0.38162473  0.64485108     0.08200
C468        C  0.88539997  0.31571038  0.65175087    -0.10900
C469        C  0.86440701  0.29182086  0.67510178    -0.10200
C470        C  0.83332647  0.28786810  0.68240538    -0.01100
C471        C  0.82346284  0.30785312  0.66545513    -0.11300
C472        C  0.84417526  0.33129391  0.64178920    -0.09700
H473        H  0.90939725  0.31860972  0.64687754     0.08200
H474        H  0.87274392  0.27690588  0.68793752     0.11900
H475        H  0.79971091  0.30546932  0.67058760     0.11700
H476        H  0.83606413  0.34667107  0.62955162     0.08200
C477        C  0.84616785  0.32686296  0.86923892    -0.10900
C478        C  0.87821268  0.33251050  0.87384885     0.06300
C479        C  0.88858739  0.31397764  0.85472835    -0.09600
C480        C  0.86727564  0.29039051  0.83124959    -0.11300
C481        C  0.83552965  0.28549043  0.82612000    -0.01100
C482        C  0.82516239  0.30377373  0.84556138    -0.10200
C483        C  0.90107498  0.35964321  0.89653498     0.06300
H484        H  0.91323268  0.31796354  0.85775293     0.08200
H485        H  0.87589752  0.27669559  0.81646577     0.11700
H486        H  0.80081870  0.30050369  0.84219486     0.11900
H487        H  0.83770040  0.34119957  0.88309790     0.08200
C488        C  0.93235824  0.38326808  0.88474031    -0.10900
C489        C  0.95096346  0.41267047  0.90270391    -0.10200
C490        C  0.93873108  0.41857590  0.93285587    -0.01100
C491        C  0.90875870  0.39398622  0.94610519    -0.11300
C492        C  0.89006880  0.36468890  0.92810106    -0.09700
H493        H  0.94129764  0.38014414  0.86038674     0.08200
H494        H  0.97389227  0.43168568  0.89198092     0.11900
H495        H  0.89887506  0.39838753  0.96918564     0.11700
H496        H  0.86617619  0.34671222  0.93790114     0.08200
C497        C  0.48228200  0.15673498  0.62743004    -0.10900
C498        C  0.45622553  0.12441119  0.62294314     0.06300
C499        C  0.42739519  0.11367036  0.64219564    -0.09600
C500        C  0.42512371  0.13459210  0.66621079    -0.11300
C501        C  0.45190521  0.16632111  0.67178480    -0.01100
C502        C  0.48021953  0.17736363  0.65171194    -0.10200
C503        C  0.46094651  0.10142424  0.60082676     0.06300
H504        H  0.40692034  0.08888664  0.63914051     0.08200
H505        H  0.40299387  0.12553431  0.68132376     0.11700
H506        H  0.50113497  0.20181271  0.65528166     0.11900
H507        H  0.50495543  0.16557625  0.61331778     0.08200
C508        C  0.45355366  0.07036576  0.61324580    -0.10900
C509        C  0.46435506  0.05150647  0.59577107    -0.10200
C510        C  0.48227729  0.06324399  0.56547110    -0.01100
C511        C  0.48769233  0.09310469  0.55177416    -0.11300
C512        C  0.47704906  0.11204182  0.56927705    -0.09700
H513        H  0.44156314  0.06175800  0.63766263     0.08200
H514        H  0.46049202  0.02872981  0.60690857     0.11900
H515        H  0.50185317  0.10262904  0.52860270     0.11700
H516        H  0.48284659  0.13576622  0.55902488     0.08200
C517        C  0.47725658  0.36036478  0.92579273    -0.10900
C518        C  0.45948092  0.35526417  0.89545139     0.06300
C519        C  0.44870160  0.37736043  0.88666527    -0.09600
C520        C  0.45808706  0.40561890  0.90635911    -0.11300
C521        C  0.47801907  0.41185335  0.93517839    -0.01100
C522        C  0.48650846  0.38847089  0.94545094    -0.10200
C523        C  0.45640384  0.32983482  0.87092495     0.06300
H524        H  0.43521881  0.37409506  0.86326005     0.08200
H525        H  0.45186192  0.42376016  0.89776078     0.11700
H526        H  0.50221611  0.39313724  0.96738653     0.11900
H527        H  0.48559825  0.34352330  0.93322949     0.08200
C528        C  0.48442315  0.32789795  0.86242358    -0.10900
C529        C  0.48279247  0.30565932  0.83782812    -0.10200
C530        C  0.45301147  0.28455935  0.82133453    -0.01100
C531        C  0.42475877  0.28604811  0.83016919    -0.11300
C532        C  0.42651911  0.30875507  0.85456229    -0.09700
H533        H  0.50789756  0.34427593  0.87420380     0.08200
H534        H  0.50499807  0.30516828  0.83155803     0.11900
H535        H  0.40151070  0.27016180  0.81774522     0.11700
H536        H  0.40462357  0.30990400  0.86063609     0.08200
C537        C  0.42639663  0.31437086  0.64748566    -0.10900
C538        C  0.45528228  0.33365242  0.62874318     0.06300
C539        C  0.48231083  0.32904854  0.63371789    -0.09600
C540        C  0.48085272  0.30626241  0.65747863    -0.11300
C541        C  0.45215488  0.28714592  0.67650476    -0.01100
C542        C  0.42471043  0.29101459  0.67090822    -0.10200
C543        C  0.45863393  0.36024703  0.60577994     0.06300
H544        H  0.50503091  0.34390794  0.61998065     0.08200
H545        H  0.50235409  0.30375981  0.66111599     0.11700
H546        H  0.40228954  0.27661781  0.68525385     0.11900
H547        H  0.40526032  0.31753691  0.64412676     0.08200
C548        C  0.47312474  0.36426582  0.57349798    -0.10900
C549        C  0.48254435  0.39286381  0.55464562    -0.10200
C550        C  0.47774758  0.41794179  0.56781052    -0.01100
C551        C  0.46134325  0.41311640  0.59899001    -0.11300
C552        C  0.45153851  0.38428761  0.61772554    -0.09700
H553        H  0.47874461  0.34603433  0.56369595     0.08200
H554        H  0.49574421  0.39649595  0.53095001     0.11900
H555        H  0.45814594  0.43257944  0.60985357     0.11700
H556        H  0.44072459  0.38193223  0.64266467     0.08200
C557        C  0.51839482  0.84176694  0.36704660    -0.10900
C558        C  0.54501600  0.87345987  0.37278342     0.06300
C559        C  0.57443885  0.88371479  0.35481276    -0.09600
C560        C  0.57698823  0.86269569  0.33107532    -0.11300
C561        C  0.54985752  0.83142442  0.32442038    -0.01100
C562        C  0.52071499  0.82107786  0.34301048    -0.10200
C563        C  0.54076210  0.89623308  0.39559508     0.06300
H564        H  0.59525508  0.90812102  0.35886171     0.08200
H565        H  0.59970082  0.87130225  0.31712168     0.11700
H566        H  0.49938597  0.79707846  0.33856650     0.11900
H567        H  0.49534446  0.83345861  0.38029192     0.08200
C568        C  0.54584481  0.92644657  0.38307021    -0.10900
C569        C  0.53618765  0.94532333  0.40228464    -0.10200
C570        C  0.52183965  0.93452258  0.43448804    -0.01100
C571        C  0.51851083  0.90532428  0.44787125    -0.11300
C572        C  0.52780238  0.88623889  0.42851358    -0.09700
H573        H  0.55524829  0.93434144  0.35754046     0.08200
H574        H  0.53799445  0.96729051  0.39119361     0.11900
H575        H  0.50670479  0.89624292  0.47230705     0.11700
H576        H  0.52352753  0.86294384  0.43857751     0.08200
C577        C  0.51218957  0.63530928  0.06900601    -0.10900
C578        C  0.53304733  0.64089074  0.09699580     0.06300
C579        C  0.54501637  0.61913364  0.10253621    -0.09600
C580        C  0.53405279  0.59090990  0.08225763    -0.11300
C581        C  0.51118628  0.58420915  0.05608481    -0.01100
C582        C  0.50121038  0.60715771  0.04891966    -0.10200
C583        C  0.53850505  0.66661725  0.12255889     0.06300
H584        H  0.56091749  0.62264380  0.12398340     0.08200
H585        H  0.54163871  0.57319509  0.08845259     0.11700
H586        H  0.48341237  0.60228220  0.02898128     0.11900
H587        H  0.50300330  0.65191515  0.06370447     0.08200
C588        C  0.56919820  0.68630424  0.13832219    -0.10900
C589        C  0.57300374  0.70926959  0.16356644    -0.10200
C590        C  0.54601269  0.71242937  0.17380636    -0.01100
C591        C  0.51553886  0.69283455  0.15783922    -0.11300
C592        C  0.51185046  0.67034105  0.13260651    -0.09700
H593        H  0.59017853  0.68392820  0.13111945     0.08200
H594        H  0.59674653  0.72397699  0.17553840     0.11900
H595        H  0.49424075  0.69465245  0.16507118     0.11700
H596        H  0.48772753  0.65512986  0.12159760     0.08200
C597        C  0.55121353  0.61394031  0.37534563    -0.10900
C598        C  0.54968203  0.64054164  0.38986140     0.06300
C599        C  0.53936292  0.63830690  0.42387964    -0.09600
C600        C  0.52843833  0.60912997  0.44217123    -0.11300
C601        C  0.52755915  0.58177697  0.42665697    -0.01100
C602        C  0.53991703  0.58463278  0.39353425    -0.10200
C603        C  0.55353740  0.66794221  0.36796630     0.06300
H604        H  0.53802123  0.65851971  0.43562537     0.08200
H605        H  0.51851326  0.60711596  0.46753682     0.11700
H606        H  0.53885685  0.56350668  0.38103885     0.11900
H607        H  0.55865684  0.61488789  0.34906674     0.08200
C608        C  0.52861605  0.67615795  0.36768802    -0.10900
C609        C  0.52910585  0.69842301  0.34390816    -0.10200
C610        C  0.55481419  0.71344528  0.32025368    -0.01100
C611        C  0.58066151  0.70654323  0.32145748    -0.11300
C612        C  0.57979961  0.68358598  0.34488636    -0.09700
H613        H  0.50787244  0.66415443  0.38484455     0.08200
H614        H  0.50903279  0.70355173  0.34369177     0.11900
H615        H  0.60076600  0.71787370  0.30345971     0.11700
H616        H  0.59926437  0.67757151  0.34459908     0.08200
C617        C  0.63652168  0.10137654  0.92808450    -0.10900
C618        C  0.64120825  0.09367685  0.89465198     0.06300
C619        C  0.61628886  0.06486819  0.87930032    -0.09600
C620        C  0.58632103  0.04560419  0.89600704    -0.11300
C621        C  0.58105124  0.05446122  0.92856524    -0.01100
C622        C  0.60670530  0.08183585  0.94494988    -0.10200
C623        C  0.66963606  0.11773083  0.87406756     0.06300
H624        H  0.61905809  0.05859245  0.85342636     0.08200
H625        H  0.56654682  0.02490458  0.88275442     0.11700
H626        H  0.60283686  0.08932073  0.96983315     0.11900
H627        H  0.65535845  0.12340454  0.94050962     0.08200
C628        C  0.67739359  0.15077726  0.87314193    -0.10900
C629        C  0.70045311  0.17267971  0.84991875    -0.10200
C630        C  0.71669692  0.16220193  0.82748301    -0.01100
C631        C  0.71046682  0.12969068  0.82972728    -0.11300
C632        C  0.68682272  0.10751595  0.85256825    -0.09700
H633        H  0.66433415  0.15927791  0.88913748     0.08200
H634        H  0.70501615  0.19769874  0.84894032     0.11900
H635        H  0.72271875  0.12103262  0.81275325     0.11700
H636        H  0.68134787  0.08218454  0.85286848     0.08200
C637        C  0.48278282  0.15043778  0.85987784    -0.10900
C638        C  0.45591157  0.11861411  0.86456785     0.06300
C639        C  0.42707830  0.10893591  0.84567202    -0.09600
C640        C  0.42528569  0.13072491  0.82247060    -0.11300
C641        C  0.45255818  0.16226954  0.81725418    -0.01100
C642        C  0.48121160  0.17188949  0.83635763    -0.10200
C643        C  0.45937525  0.09537284  0.88750969     0.06300
H644        H  0.40603396  0.08450836  0.84877454     0.08200
H645        H  0.40291714  0.12264021  0.80802007     0.11700
H646        H  0.50259400  0.19604629  0.83298465     0.11900
H647        H  0.50548916  0.15839973  0.87366285     0.08200
C648        C  0.45148002  0.06387593  0.87590859    -0.10900
C649        C  0.46120486  0.04474530  0.89458251    -0.10200
C650        C  0.47833281  0.05659256  0.92536963    -0.01100
C651        C  0.48400005  0.08686624  0.93822190    -0.11300
C652        C  0.47462755  0.10611671  0.91945534    -0.09700
H653        H  0.43997499  0.05510546  0.85128397     0.08200
H654        H  0.45709016  0.02161362  0.88409697     0.11900
H655        H  0.49754741  0.09650681  0.96174044     0.11700
H656        H  0.48075085  0.13016127  0.92910507     0.08200
C657        C  0.51504019  0.88410046  0.07860263    -0.10900
C658        C  0.53376085  0.89663031  0.10846980     0.06300
C659        C  0.54556472  0.92974726  0.11727910    -0.09600
C660        C  0.53672566  0.94919310  0.09793745    -0.11300
C661        C  0.51644547  0.93592769  0.06928429    -0.01100
C662        C  0.50646985  0.90360015  0.05918316    -0.10200
C663        C  0.53786250  0.87429835  0.13212703     0.06300
H664        H  0.55975660  0.93989958  0.14033127     0.08200
H665        H  0.54399892  0.97387431  0.10647536     0.11700
H666        H  0.49032615  0.89283934  0.03747231     0.11900
H667        H  0.50585354  0.85874680  0.07110995     0.08200
C668        C  0.51049903  0.84389626  0.14087167    -0.10900
C669        C  0.51340751  0.82331665  0.16452857    -0.10200
C670        C  0.54383607  0.83245519  0.17975621    -0.01100
C671        C  0.57138269  0.86267772  0.17071116    -0.11300
C672        C  0.56835118  0.88354867  0.14730782    -0.09700
H673        H  0.48659135  0.83637744  0.12999459     0.08200
H674        H  0.49172661  0.80021091  0.17095692     0.11900
H675        H  0.59512700  0.87039681  0.18210226     0.11700
H676        H  0.58980722  0.90687520  0.14099510     0.08200
C677        C  0.31369541  0.89269382  0.15046783    -0.10900
C678        C  0.32940663  0.88168346  0.12785069     0.06300
C679        C  0.32083270  0.84840894  0.12855658    -0.09600
C680        C  0.29822808  0.82694184  0.15239752    -0.11300
C681        C  0.28318727  0.83807082  0.17569112    -0.01100
C682        C  0.29044301  0.87094986  0.17392333    -0.10200
C683        C  0.35718624  0.90506046  0.10612314     0.06300
H684        H  0.33283773  0.83934044  0.11173989     0.08200
H685        H  0.29294520  0.80167314  0.15302984     0.11700
H686        H  0.27921205  0.88015128  0.19159922     0.11900
H687        H  0.31993544  0.91826163  0.15043497     0.08200
C688        C  0.35965332  0.89720957  0.07203963    -0.10900
C689        C  0.38885111  0.91576950  0.05378559    -0.10200
C690        C  0.41605475  0.94226945  0.06943306    -0.01100
C691        C  0.41297476  0.95138469  0.10270068    -0.11300
C692        C  0.38366847  0.93312318  0.12080555    -0.09700
H693        H  0.33956405  0.87571032  0.06014923     0.08200
H694        H  0.39100942  0.90805824  0.02835552     0.11900
H695        H  0.43396131  0.97136946  0.11537887     0.11700
H696        H  0.38258637  0.93945652  0.14712738     0.08200
loop_ 
_geom_bond_atom_site_label_1 
_geom_bond_atom_site_label_2 
_geom_bond_distance 
_geom_bond_site_symmetry_2 
_ccdc_geom_bond_type 
C1            C2   1.396       .  A
C1            C6   1.413       .  A
C1          C661   1.478       .  S
C2            C3   1.396       .  A
C2           H21   1.086       .  S
C3            C4   1.414       .  A
C3          C690   1.480       .  S
C4            C5   1.422       .  A
C4           C11   1.405       .  A
C5            C6   1.421       .  A
C5           C10   1.420   1_564  A
C6            C7   1.405       .  A
C7            C8   1.396   1_564  A
C7           H17   1.083       .  S
C8            C9   1.406       .  A
C8           H18   1.083       .  S
C9           C10   1.422       .  A
C9           C16   1.415       .  A
C10          C13   1.421       .  A
C11          C12   1.395   1_564  A
C11          H19   1.083       .  S
C12          C13   1.406       .  A
C12          H20   1.083       .  S
C13          C14   1.413       .  A
C14          C15   1.397       .  A
C14         C650   1.479       .  S
C15          C16   1.398       .  A
C15          H22   1.086       .  S
C16         C621   1.481       .  S
O23          V31   1.894       .  S
O23          C33   1.264       .  A
O24          V31   1.897       .  S
O24          C34   1.265       .  A
O25          V31   1.888       .  S
O25          C35   1.263       .  A
O26          V31   1.887       .  S
O26          C36   1.262       .  A
O27          V32   1.915       .  S
O27          C36   1.268       .  A
O28          V32   1.916       .  S
O28          C35   1.268       .  A
O29          V32   1.906       .  S
O29          C34   1.266       .  A
O30          V32   1.906       .  S
O30          C33   1.265       .  A
V31          V32   2.086       .  T
C33         C610   1.475       .  S
C34         C670   1.481       .  S
C35         C590   1.482       .  S
C36         C561   1.481       .  S
O37          V45   1.909       .  S
O37          C47   1.266       .  A
O38          V45   1.908       .  S
O38          C48   1.266       .  A
O39          V45   1.906       .  S
O39          C49   1.266       .  A
O40          V45   1.906       .  S
O40          C50   1.266       .  A
O41          V46   1.893       .  S
O41          C50   1.264       .  A
O42          V46   1.893       .  S
O42          C49   1.264       .  A
O43          V46   1.896       .  S
O43          C48   1.264       .  A
O44          V46   1.898       .  S
O44          C47   1.265       .  A
V45          V46   2.087       .  T
C47         C641   1.482       .  S
C48         C541   1.481       .  S
C49         C501   1.477       .  S
C50         C530   1.479       .  S
O51          V59   1.908       .  S
O51          C61   1.266       .  A
O52          V59   1.910       .  S
O52          C62   1.267       .  A
O53          V59   1.907       .  S
O53          C63   1.266       .  A
O54          V59   1.909       .  S
O54          C64   1.266       .  A
O55          V60   1.896       .  S
O55          C64   1.264       .  A
O56          V60   1.897       .  S
O56          C63   1.264       .  A
O57          V60   1.893       .  S
O57          C62   1.264       .  A
O58          V60   1.890       .  S
O58          C61   1.263       .  A
V59          V60   2.086       .  T
C61         C481   1.477       .  S
C62         C441   1.482       .  S
C63         C470   1.482       .  S
C64         C630   1.479       .  S
O65          V73   1.892       .  S
O65          C75   1.264       .  A
O66          V73   1.887       .  S
O66          C76   1.262       .  A
O67          V73   1.895       .  S
O67          C77   1.264       .  A
O68          V73   1.896       .  S
O68          C78   1.265       .  A
O69          V74   1.915       .  S
O69          C78   1.268       .  A
O70          V74   1.913       .  S
O70          C77   1.267       .  A
O71          V74   1.912       .  S
O71          C76   1.267       .  A
O72          V74   1.911       .  S
O72          C75   1.267       .  A
V73          V74   2.086       .  T
C75         C390   1.482       .  S
C76         C410   1.478       .  S
C77         C681   1.481       .  S
C78         C421   1.488       .  S
C79          C80   1.397       .  A
C79          C84   1.413       .  A
C79         C361   1.478       .  S
C80          C81   1.397       .  A
C80          H99   1.086       .  S
C81          C82   1.412       .  A
C81         C490   1.476       .  S
C82          C83   1.420       .  A
C82          C89   1.405       .  A
C83          C84   1.420       .  A
C83          C88   1.418   1_656  A
C84          C85   1.406       .  A
C85          C86   1.394   1_656  A
C85          H95   1.083       .  S
C86          C87   1.405       .  A
C86          H96   1.083       .  S
C87          C88   1.421       .  A
C87          C94   1.412       .  A
C88          C91   1.420       .  A
C89          C90   1.394   1_656  A
C89          H97   1.083       .  S
C90          C91   1.405       .  A
C90          H98   1.083       .  S
C91          C92   1.412       .  A
C92          C93   1.396       .  A
C92         C350   1.476       .  S
C93          C94   1.396       .  A
C93         H100   1.086       .  S
C94         C401   1.477       .  S
C101        C102   1.396       .  A
C101        C106   1.415       .  A
C101        C461   1.481       .  S
C102        C103   1.396       .  A
C102        H121   1.086       .  S
C103        C104   1.416       .  A
C103        C321   1.482       .  S
C104        C105   1.423       .  A
C104        C111   1.405       .  A
C105        C106   1.423       .  A
C105        C110   1.422   1_655  A
C106        C107   1.406       .  A
C107        C108   1.396   1_655  A
C107        H117   1.083       .  S
C108        C109   1.406       .  A
C108        H118   1.083       .  S
C109        C110   1.423       .  A
C109        C116   1.414       .  A
C110        C113   1.425       .  A
C111        C112   1.397   1_655  A
C111        H119   1.083       .  S
C112        C113   1.406       .  A
C112        H120   1.083       .  S
C113        C114   1.418       .  A
C114        C115   1.398       .  A
C114        C430   1.488       .  S
C115        C116   1.396       .  A
C115        H122   1.086       .  S
C116        C310   1.481       .  S
O123        V131   1.912       .  S
O123        C133   1.268       .  A
O124        V131   1.912       .  S
O124        C134   1.267       .  A
O125        V131   1.911       .  S
O125        C135   1.267       .  A
O126        V131   1.907       .  S
O126        C136   1.266       .  A
O127        V132   1.901       .  S
O127        C136   1.265       .  A
O128        V132   1.900       .  S
O128        C135   1.266       .  A
O129        V132   1.891       .  S
O129        C134   1.263       .  A
O130        V132   1.891       .  S
O130        C133   1.263       .  A
V131        V132   2.086       .  T
C133        C290   1.483       .  S
C134        C341   1.480       .  S
C135        C270   1.487       .  S
C136        C301   1.482       .  S
O137        V145   1.895       .  S
O137        C147   1.264       .  A
O138        V145   1.895       .  S
O138        C148   1.264       .  A
O139        V145   1.893       .  S
O139        C149   1.263       .  A
O140        V145   1.888       .  S
O140        C150   1.263       .  A
O141        V146   1.918       .  S
O141        C150   1.269       .  A
O142        V146   1.916       .  S
O142        C149   1.268       .  A
O143        V146   1.909       .  S
O143        C148   1.266       .  A
O144        V146   1.907       .  S
O144        C147   1.265       .  A
V145        V146   2.086       .  T
C147        C370   1.476       .  S
C148        C241   1.483       .  S
C149        C330   1.484       .  S
C150        C221   1.485       .  S
C151        C152   1.398       .  A
C151        C156   1.414       .  A
C151        C581   1.482       .  S
C152        C153   1.397       .  A
C152        H171   1.086       .  S
C153        C154   1.415       .  A
C153        C261   1.484       .  S
C154        C155   1.423       .  A
C154        C161   1.405       .  A
C155        C156   1.421       .  A
C155        C160   1.421   1_554  A
C156        C157   1.406       .  A
C157        C158   1.395   1_554  A
C157        H167   1.082       .  S
C158        C159   1.405       .  A
C158        H168   1.083       .  S
C159        C160   1.424       .  A
C159        C166   1.416       .  A
C160        C163   1.421       .  A
C161        C162   1.395   1_554  A
C161        H169   1.083       .  S
C162        C163   1.406       .  A
C162        H170   1.083       .  S
C163        C164   1.412       .  A
C164        C165   1.396       .  A
C164        C521   1.478       .  S
C165        C166   1.397       .  A
C165        H172   1.086       .  S
C166        C230   1.485       .  S
C173        C174   1.396       .  A
C173        C178   1.415       .  A
C173        C281   1.481       .  S
C174        C175   1.396       .  A
C174        H193   1.086       .  S
C175        C176   1.412       .  A
C175        C601   1.477       .  S
C176        C177   1.421       .  A
C176        C183   1.406       .  A
C177        C178   1.423       .  A
C177        C182   1.420       .  A
C178        C179   1.405       .  A
C179        C180   1.396       .  A
C179        H189   1.083       .  S
C180        C181   1.406       .  A
C180        H190   1.083       .  S
C181        C182   1.421       .  A
C181        C188   1.414       .  A
C182        C185   1.423       .  A
C183        C184   1.394       .  A
C183        H191   1.083       .  S
C184        C185   1.405       .  A
C184        H192   1.083       .  S
C185        C186   1.414       .  A
C186        C187   1.396       .  A
C186        C250   1.481       .  S
C187        C188   1.396       .  A
C187        H194   1.086       .  S
C188        C550   1.478       .  S
C195        C196   1.394       .  A
C195        C200   1.413       .  A
C195        C570   1.478       .  S
C196        C197   1.396       .  A
C196        H215   1.086       .  S
C197        C198   1.414       .  A
C197        C381   1.481       .  S
C198        C199   1.423       .  A
C198        C205   1.405       .  A
C199        C200   1.422       .  A
C199        C204   1.420   1_565  A
C200        C201   1.406       .  A
C201        C202   1.396   1_565  A
C201        H211   1.083       .  S
C202        C203   1.405       .  A
C202        H212   1.083       .  S
C203        C204   1.423       .  A
C203        C210   1.415       .  A
C204        C207   1.421       .  A
C205        C206   1.394   1_565  A
C205        H213   1.083       .  S
C206        C207   1.406       .  A
C206        H214   1.083       .  S
C207        C208   1.411       .  A
C208        C209   1.395       .  A
C208        C510   1.477       .  S
C209        C210   1.398       .  A
C209        H216   1.086       .  S
C210        C450   1.481       .  S
C217        C218   1.409       .  A
C217        C222   1.406       .  A
C217        H227   1.083       .  S
C218        C219   1.405       .  A
C218        C223   1.490       .  S
C219        C220   1.393       .  A
C219        H224   1.083       .  S
C220        C221   1.405       .  A
C220        H225   1.083       .  S
C221        C222   1.407       .  A
C222        H226   1.082       .  S
C223        C228   1.407       .  A
C223        C232   1.408       .  A
C228        C229   1.397       .  A
C228        H233   1.083       .  S
C229        C230   1.403       .  A
C229        H234   1.083       .  S
C230        C231   1.404       .  A
C231        C232   1.403       .  A
C231        H235   1.083       .  S
C232        H236   1.082       .  S
C237        C238   1.405       .  A
C237        C242   1.395       .  A
C237        H247   1.083       .  S
C238        C239   1.406       .  A
C238        C243   1.486       .  S
C239        C240   1.404       .  A
C239        H244   1.083       .  S
C240        C241   1.408       .  A
C240        H245   1.083       .  S
C241        C242   1.405       .  A
C242        H246   1.083       .  S
C243        C248   1.406       .  A
C243        C252   1.407       .  A
C248        C249   1.396       .  A
C248        H253   1.083       .  S
C249        C250   1.402       .  A
C249        H254   1.083       .  S
C250        C251   1.403       .  A
C251        C252   1.403       .  A
C251        H255   1.083       .  S
C252        H256   1.082       .  S
C257        C258   1.407       .  A
C257        C262   1.403       .  A
C257        H267   1.082       .  S
C258        C259   1.406       .  A
C258        C263   1.489       .  S
C259        C260   1.398       .  A
C259        H264   1.083       .  S
C260        C261   1.402       .  A
C260        H265   1.083       .  S
C261        C262   1.404       .  A
C262        H266   1.084       .  S
C263        C268   1.405       .  A
C263        C272   1.407       .  A
C268        C269   1.396       .  A
C268        H273   1.083       .  S
C269        C270   1.405       .  A
C269        H274   1.083       .  S
C270        C271   1.409       .  A
C271        C272   1.406       .  A
C271        H275   1.083       .  S
C272        H276   1.083       .  S
C277        C278   1.406       .  A
C277        C282   1.398       .  A
C277        H287   1.084       .  S
C278        C279   1.406       .  A
C278        C283   1.485       .  S
C279        C280   1.402       .  A
C279        H284   1.082       .  S
C280        C281   1.403       .  A
C280        H285   1.083       .  S
C281        C282   1.402       .  A
C282        H286   1.083       .  S
C283        C288   1.404       .  A
C283        C292   1.406       .  A
C288        C289   1.395       .  A
C288        H293   1.083       .  S
C289        C290   1.406       .  A
C289        H294   1.083       .  S
C290        C291   1.407       .  A
C291        C292   1.404       .  A
C291        H295   1.083       .  S
C292        H296   1.083       .  S
C297        C298   1.406       .  A
C297        C302   1.402       .  A
C297        H307   1.083       .  S
C298        C299   1.406       .  A
C298        C303   1.486       .  S
C299        C300   1.398       .  A
C299        H304   1.083       .  S
C300        C301   1.405       .  A
C300        H305   1.083       .  S
C301        C302   1.406       .  A
C302        H306   1.083       .  S
C303        C308   1.406       .  A
C303        C312   1.406       .  A
C308        C309   1.400       .  A
C308        H313   1.083       .  S
C309        C310   1.403       .  A
C309        H314   1.083       .  S
C310        C311   1.403       .  A
C311        C312   1.400       .  A
C311        H315   1.083       .  S
C312        H316   1.083       .  S
C317        C318   1.406       .  A
C317        C322   1.400       .  A
C317        H327   1.083       .  S
C318        C319   1.406       .  A
C318        C323   1.486       .  S
C319        C320   1.402       .  A
C319        H324   1.083       .  S
C320        C321   1.404       .  A
C320        H325   1.083       .  S
C321        C322   1.402       .  A
C322        H326   1.083       .  S
C323        C328   1.407       .  A
C323        C332   1.403       .  A
C328        C329   1.406       .  A
C328        H333   1.083       .  S
C329        C330   1.407       .  A
C329        H334   1.083       .  S
C330        C331   1.405       .  A
C331        C332   1.396       .  A
C331        H335   1.083       .  S
C332        H336   1.083       .  S
C337        C338   1.403       .  A
C337        C342   1.392       .  A
C337        H347   1.083       .  S
C338        C339   1.406       .  A
C338        C343   1.482       .  S
C339        C340   1.405       .  A
C339        H344   1.083       .  S
C340        C341   1.407       .  A
C340        H345   1.083       .  S
C341        C342   1.404       .  A
C342        H346   1.083       .  S
C343        C348   1.406       .  A
C343        C352   1.406       .  A
C348        C349   1.395       .  A
C348        H353   1.083       .  S
C349        C350   1.400       .  A
C349        H354   1.083       .  S
C350        C351   1.403       .  A
C351        C352   1.401       .  A
C351        H355   1.083       .  S
C352        H356   1.082       .  S
C357        C358   1.405       .  A
C357        C362   1.398       .  A
C357        H367   1.083       .  S
C358        C359   1.405       .  A
C358        C363   1.480       .  S
C359        C360   1.398       .  A
C359        H364   1.083       .  S
C360        C361   1.402       .  A
C360        H365   1.083       .  S
C361        C362   1.402       .  A
C362        H366   1.084       .  S
C363        C368   1.403       .  A
C363        C372   1.406       .  A
C368        C369   1.394       .  A
C368        H373   1.083       .  S
C369        C370   1.403       .  A
C369        H374   1.084       .  S
C370        C371   1.405       .  A
C371        C372   1.402       .  A
C371        H375   1.083       .  S
C372        H376   1.084       .  S
C377        C378   1.405       .  A
C377        C382   1.395       .  A
C377        H387   1.084       .  S
C378        C379   1.407       .  A
C378        C383   1.486       .  S
C379        C380   1.403       .  A
C379        H384   1.082       .  S
C380        C381   1.403       .  A
C380        H385   1.084       .  S
C381        C382   1.402       .  A
C382        H386   1.083       .  S
C383        C388   1.406       .  A
C383        C392   1.405       .  A
C388        C389   1.404       .  A
C388        H393   1.083       .  S
C389        C390   1.407       .  A
C389        H394   1.082       .  S
C390        C391   1.405       .  A
C391        C392   1.394       .  A
C391        H395   1.084       .  S
C392        H396   1.083       .  S
C397        C398   1.405       .  A
C397        C402   1.399       .  A
C397        H407   1.082       .  S
C398        C399   1.406       .  A
C398        C403   1.482       .  S
C399        C400   1.397       .  A
C399        H404   1.083       .  S
C400        C401   1.401       .  A
C400        H405   1.083       .  S
C401        C402   1.402       .  A
C402        H406   1.083       .  S
C403        C408   1.407       .  A
C403        C412   1.403       .  A
C408        C409   1.404       .  A
C408        H413   1.083       .  S
C409        C410   1.406       .  A
C409        H414   1.083       .  S
C410        C411   1.404       .  A
C411        C412   1.393       .  A
C411        H415   1.083       .  S
C412        H416   1.083       .  S
C417        C418   1.405       .  A
C417        C422   1.395       .  A
C417        H427   1.083       .  S
C418        C419   1.408       .  A
C418        C423   1.492       .  S
C419        C420   1.408       .  A
C419        H424   1.083       .  S
C420        C421   1.409       .  A
C420        H425   1.083       .  S
C421        C422   1.405       .  A
C422        H426   1.083       .  S
C423        C428   1.408       .  A
C423        C432   1.406       .  A
C428        C429   1.407       .  A
C428        H433   1.083       .  S
C429        C430   1.406       .  A
C429        H434   1.083       .  S
C430        C431   1.403       .  A
C431        C432   1.396       .  A
C431        H435   1.083       .  S
C432        H436   1.083       .  S
C437        C438   1.406       .  A
C437        C442   1.405       .  A
C437        H447   1.083       .  S
C438        C439   1.405       .  A
C438        C443   1.486       .  S
C439        C440   1.394       .  A
C439        H444   1.083       .  S
C440        C441   1.404       .  A
C440        H445   1.083       .  S
C441        C442   1.407       .  A
C442        H446   1.083       .  S
C443        C448   1.406       .  A
C443        C452   1.407       .  A
C448        C449   1.395       .  A
C448        H453   1.083       .  S
C449        C450   1.402       .  A
C449        H454   1.083       .  S
C450        C451   1.404       .  A
C451        C452   1.404       .  A
C451        H455   1.083       .  S
C452        H456   1.082       .  S
C457        C458   1.406       .  A
C457        C462   1.401       .  A
C457        H467   1.082       .  S
C458        C459   1.406       .  A
C458        C463   1.486       .  S
C459        C460   1.399       .  A
C459        H464   1.083       .  S
C460        C461   1.402       .  A
C460        H465   1.083       .  S
C461        C462   1.403       .  A
C462        H466   1.083       .  S
C463        C468   1.406       .  A
C463        C472   1.405       .  A
C468        C469   1.402       .  A
C468        H473   1.083       .  S
C469        C470   1.406       .  A
C469        H474   1.083       .  S
C470        C471   1.405       .  A
C471        C472   1.397       .  A
C471        H475   1.083       .  S
C472        H476   1.083       .  S
C477        C478   1.404       .  A
C477        C482   1.393       .  A
C477        H487   1.083       .  S
C478        C479   1.406       .  A
C478        C483   1.482       .  S
C479        C480   1.402       .  A
C479        H484   1.083       .  S
C480        C481   1.406       .  A
C480        H485   1.083       .  S
C481        C482   1.404       .  A
C482        H486   1.084       .  S
C483        C488   1.406       .  A
C483        C492   1.407       .  A
C488        C489   1.399       .  A
C488        H493   1.082       .  S
C489        C490   1.402       .  A
C489        H494   1.083       .  S
C490        C491   1.401       .  A
C491        C492   1.397       .  A
C491        H495   1.083       .  S
C492        H496   1.083       .  S
C497        C498   1.405       .  A
C497        C502   1.394       .  A
C497        H507   1.083       .  S
C498        C499   1.406       .  A
C498        C503   1.484       .  S
C499        C500   1.402       .  A
C499        H504   1.083       .  S
C500        C501   1.405       .  A
C500        H505   1.083       .  S
C501        C502   1.404       .  A
C502        H506   1.084       .  S
C503        C508   1.406       .  A
C503        C512   1.406       .  A
C508        C509   1.399       .  A
C508        H513   1.083       .  S
C509        C510   1.401       .  A
C509        H514   1.083       .  S
C510        C511   1.401       .  A
C511        C512   1.397       .  A
C511        H515   1.083       .  S
C512        H516   1.083       .  S
C517        C518   1.405       .  A
C517        C522   1.395       .  A
C517        H527   1.083       .  S
C518        C519   1.406       .  A
C518        C523   1.481       .  S
C519        C520   1.401       .  A
C519        H524   1.083       .  S
C520        C521   1.403       .  A
C520        H525   1.083       .  S
C521        C522   1.402       .  A
C522        H526   1.083       .  S
C523        C528   1.404       .  A
C523        C532   1.405       .  A
C528        C529   1.394       .  A
C528        H533   1.083       .  S
C529        C530   1.404       .  A
C529        H534   1.083       .  S
C530        C531   1.407       .  A
C531        C532   1.402       .  A
C531        H535   1.083       .  S
C532        H536   1.083       .  S
C537        C538   1.405       .  A
C537        C542   1.403       .  A
C537        H547   1.083       .  S
C538        C539   1.404       .  A
C538        C543   1.484       .  S
C539        C540   1.396       .  A
C539        H544   1.083       .  S
C540        C541   1.404       .  A
C540        H545   1.083       .  S
C541        C542   1.407       .  A
C542        H546   1.083       .  S
C543        C548   1.406       .  A
C543        C552   1.406       .  A
C548        C549   1.398       .  A
C548        H553   1.083       .  S
C549        C550   1.402       .  A
C549        H554   1.083       .  S
C550        C551   1.403       .  A
C551        C552   1.401       .  A
C551        H555   1.083       .  S
C552        H556   1.083       .  S
C557        C558   1.402       .  A
C557        C562   1.395       .  A
C557        H567   1.083       .  S
C558        C559   1.405       .  A
C558        C563   1.481       .  S
C559        C560   1.403       .  A
C559        H564   1.083       .  S
C560        C561   1.406       .  A
C560        H565   1.082       .  S
C561        C562   1.407       .  A
C562        H566   1.084       .  S
C563        C568   1.404       .  A
C563        C572   1.405       .  A
C568        C569   1.399       .  A
C568        H573   1.083       .  S
C569        C570   1.403       .  A
C569        H574   1.083       .  S
C570        C571   1.402       .  A
C571        C572   1.399       .  A
C571        H575   1.083       .  S
C572        H576   1.083       .  S
C577        C578   1.407       .  A
C577        C582   1.396       .  A
C577        H587   1.083       .  S
C578        C579   1.407       .  A
C578        C583   1.489       .  S
C579        C580   1.403       .  A
C579        H584   1.082       .  S
C580        C581   1.404       .  A
C580        H585   1.084       .  S
C581        C582   1.401       .  A
C582        H586   1.083       .  S
C583        C588   1.408       .  A
C583        C592   1.404       .  A
C588        C589   1.407       .  A
C588        H593   1.083       .  S
C589        C590   1.407       .  A
C589        H594   1.082       .  S
C590        C591   1.404       .  A
C591        C592   1.392       .  A
C591        H595   1.084       .  S
C592        H596   1.083       .  S
C597        C598   1.405       .  A
C597        C602   1.398       .  A
C597        H607   1.083       .  S
C598        C599   1.406       .  A
C598        C603   1.482       .  S
C599        C600   1.398       .  A
C599        H604   1.084       .  S
C600        C601   1.401       .  A
C600        H605   1.083       .  S
C601        C602   1.402       .  A
C602        H606   1.084       .  S
C603        C608   1.404       .  A
C603        C612   1.406       .  A
C608        C609   1.394       .  A
C608        H613   1.083       .  S
C609        C610   1.403       .  A
C609        H614   1.084       .  S
C610        C611   1.405       .  A
C611        C612   1.403       .  A
C611        H615   1.083       .  S
C612        H616   1.084       .  S
C617        C618   1.406       .  A
C617        C622   1.399       .  A
C617        H627   1.083       .  S
C618        C619   1.406       .  A
C618        C623   1.485       .  S
C619        C620   1.399       .  A
C619        H624   1.082       .  S
C620        C621   1.403       .  A
C620        H625   1.084       .  S
C621        C622   1.402       .  A
C622        H626   1.083       .  S
C623        C628   1.405       .  A
C623        C632   1.406       .  A
C628        C629   1.396       .  A
C628        H633   1.083       .  S
C629        C630   1.404       .  A
C629        H634   1.084       .  S
C630        C631   1.405       .  A
C631        C632   1.402       .  A
C631        H635   1.083       .  S
C632        H636   1.083       .  S
C637        C638   1.405       .  A
C637        C642   1.396       .  A
C637        H647   1.083       .  S
C638        C639   1.406       .  A
C638        C643   1.486       .  S
C639        C640   1.404       .  A
C639        H644   1.083       .  S
C640        C641   1.407       .  A
C640        H645   1.082       .  S
C641        C642   1.404       .  A
C642        H646   1.083       .  S
C643        C648   1.407       .  A
C643        C652   1.406       .  A
C648        C649   1.402       .  A
C648        H653   1.083       .  S
C649        C650   1.403       .  A
C649        H654   1.083       .  S
C650        C651   1.401       .  A
C651        C652   1.397       .  A
C651        H655   1.083       .  S
C652        H656   1.083       .  S
C657        C658   1.405       .  A
C657        C662   1.397       .  A
C657        H667   1.083       .  S
C658        C659   1.407       .  A
C658        C663   1.484       .  S
C659        C660   1.401       .  A
C659        H664   1.083       .  S
C660        C661   1.402       .  A
C660        H665   1.083       .  S
C661        C662   1.402       .  A
C662        H666   1.083       .  S
C663        C668   1.405       .  A
C663        C672   1.405       .  A
C668        C669   1.396       .  A
C668        H673   1.083       .  S
C669        C670   1.405       .  A
C669        H674   1.083       .  S
C670        C671   1.407       .  A
C671        C672   1.402       .  A
C671        H675   1.083       .  S
C672        H676   1.083       .  S
C677        C678   1.406       .  A
C677        C682   1.403       .  A
C677        H687   1.083       .  S
C678        C679   1.404       .  A
C678        C683   1.485       .  S
C679        C680   1.397       .  A
C679        H684   1.083       .  S
C680        C681   1.405       .  A
C680        H685   1.083       .  S
C681        C682   1.406       .  A
C682        H686   1.083       .  S
C683        C688   1.407       .  A
C683        C692   1.405       .  A
C688        C689   1.400       .  A
C688        H693   1.083       .  S
C689        C690   1.402       .  A
C689        H694   1.083       .  S
C690        C691   1.403       .  A
C691        C692   1.399       .  A
C691        H695   1.084       .  S
C692        H696   1.083       .  S
