geometry optimzed in LAMMPS
_audit_creation_date              2020-11-30 
_audit_creation_method            'lammps2cif' 
_symmetry_space_group_name_H-M    'P1' 
_symmetry_Int_Tables_number       1 
_symmetry_cell_setting            triclinic 
loop_ 
_symmetry_equiv_pos_as_xyz 
  x,y,z 
_cell_length_a                    32.75859745 
_cell_length_b                    32.83230806011858 
_cell_length_c                    28.707005582335896 
_cell_angle_alpha                 90.01179969003796 
_cell_angle_beta                  90.09591833438154 
_cell_angle_gamma                 89.98107970841012 
loop_ 
_atom_site_label 
_atom_site_type_symbol 
_atom_site_fract_x 
_atom_site_fract_y 
_atom_site_fract_z 
_atom_site_charge 
C1          C  0.84589549  0.71892386  0.28033324     0.86100
C2          C  0.81725104  0.75529696  0.28627653    -0.54200
C3          C  0.82484899  0.77943353  0.99465937     0.09000
C4          C  0.85671126  0.76123432  0.02983261     0.20000
C5          C  0.88872823  0.73724430  0.28351119    -0.54900
C6          C  0.89764074  0.75781687  0.00195311     0.09100
C7          C  0.84158916  0.69424036  0.32720989    -0.54400
C8          C  0.84234826  0.71659790  0.03748902     0.09700
H9          H  0.79278956  0.76203243  0.26186211     0.14200
H10         H  0.85954271  0.77896701  0.06261625    -0.00100
H11         H  0.91121594  0.73416843  0.25595990     0.14500
H12         H  0.83014949  0.66392435  0.99338018     0.14300
O13         O  0.79511750  0.60235789  0.11250379    -0.73400
O14         O  0.80506896  0.68803457  0.21563136    -0.74300
O15         O  0.80409248  0.68873702  0.10543448    -0.63000
O16         O  0.79721406  0.60175617  0.21054623    -0.71400
O17         O  0.86469986  0.59981173  0.20649672    -0.70900
O18         O  0.87134404  0.68424936  0.10638802    -0.62200
O19         O  0.87221974  0.68438191  0.21099194    -0.74700
O20         O  0.86272489  0.59886750  0.11578210    -0.73500
Cu21       Cu  0.79765212  0.64642233  0.16107428     1.04600
Cu22       Cu  0.86965348  0.64244161  0.15982475     1.04300
C23         C  0.82875103  0.58617657  0.10007031     0.92800
C24         C  0.84039037  0.69589792  0.23326651     0.92000
C25         C  0.83879965  0.69632394  0.08578838     0.84100
C26         C  0.83139159  0.58649531  0.22329899     0.90400
C27         C  0.84950097  0.24439095  0.05309161     0.86100
C28         C  0.82186688  0.20724359  0.04774338    -0.54200
C29         C  0.82396265  0.18619060  0.33589608     0.09000
C30         C  0.85554110  0.20459193  0.30125238     0.21600
C31         C  0.89293994  0.22710353  0.05034000    -0.54900
C32         C  0.89626086  0.20724324  0.32921612     0.09100
C33         C  0.84445281  0.26851946  0.00600634    -0.54400
C34         C  0.84113734  0.24915520  0.29429288     0.09700
H35         H  0.79723439  0.20048779  0.07183432     0.14200
H36         H  0.85827632  0.18723241  0.26819740    -0.00100
H37         H  0.91528282  0.23094355  0.07799471     0.14500
H38         H  0.82826703  0.30113242  0.33933065     0.14300
O39         O  0.79276437  0.36242163  0.21709342    -0.73400
O40         O  0.80685153  0.27587662  0.11548573    -0.74300
O41         O  0.80322065  0.27631358  0.22545907    -0.63000
O42         O  0.79725875  0.36241223  0.11901933    -0.71400
O43         O  0.86462596  0.36506518  0.12494828    -0.70900
O44         O  0.87039604  0.28180092  0.22610844    -0.62200
O45         O  0.87385541  0.28046568  0.12221607    -0.74700
O46         O  0.86034855  0.36704055  0.21556111    -0.73500
Cu47       Cu  0.79727458  0.31801577  0.16906562     1.04600
Cu48       Cu  0.86916913  0.32305337  0.17235073     1.04300
C49         C  0.82589021  0.37915697  0.23042140     0.92800
C50         C  0.84270009  0.26804797  0.09934265     0.92000
C51         C  0.83773392  0.26943418  0.24602717     0.84100
C52         C  0.83150729  0.37805436  0.10722293     0.90400
N53         N  0.86480171  0.54292262  0.98934120    -0.37000
N54         N  0.83593512  0.48208587  0.05456694    -0.57600
N55         N  0.87152297  0.42371170  0.99797461    -0.37000
N56         N  0.83336942  0.48267414  0.27684341    -0.57600
C57         C  0.85852902  0.56556160  0.02741362     0.26600
C58         C  0.86421134  0.56408404  0.29531320     0.26600
C59         C  0.86530759  0.40072801  0.03604511     0.26600
C60         C  0.85383747  0.39872248  0.30444374     0.26600
C61         C  0.81714603  0.51536239  0.07161207     0.35200
C62         C  0.81941620  0.44900871  0.07532380     0.35200
C63         C  0.81809442  0.51597487  0.25529535     0.35200
C64         C  0.81428426  0.44977320  0.25919313     0.35200
C65         C  0.88000921  0.60224387  0.02327187    -0.22300
C66         C  0.88811519  0.59923621  0.29827325    -0.22300
C67         C  0.88967543  0.36587673  0.03356224    -0.22300
C68         C  0.87463393  0.36171467  0.30852801    -0.22300
C69         C  0.78777626  0.50351738  0.10346484    -0.23400
C70         C  0.78917079  0.46131947  0.10575715    -0.23400
C71         C  0.78832146  0.50418776  0.22386370    -0.23400
C72         C  0.78599344  0.46208482  0.22622987    -0.23400
C73         C  0.83139819  0.55544219  0.06364761    -0.18700
C74         C  0.83519131  0.55543091  0.26025219    -0.18700
C75         C  0.82754356  0.40945788  0.26749978    -0.18700
C76         C  0.83580341  0.40922231  0.07044040    -0.18700
H77         H  0.88022462  0.62844463  0.04571539     0.14200
H78         H  0.88870262  0.62568952  0.27605026     0.14200
H79         H  0.89034169  0.33946350  0.05587147     0.14200
H80         H  0.87450008  0.33577311  0.28588429     0.14200
H81         H  0.76763791  0.52327569  0.12282159     0.12500
H82         H  0.77033142  0.44194965  0.12715545     0.12500
H83         H  0.77044404  0.52383511  0.20166622     0.12500
H84         H  0.76603251  0.44267333  0.20611583     0.12500
H85         H  0.84823456  0.51724034  0.97947549     0.25700
H86         H  0.85263607  0.44681958  0.98558971     0.25700
C87         C  0.73577231  0.84203932  0.04913149     0.86100
C88         C  0.77107012  0.81084280  0.04676495    -0.54200
C89         C  0.79311758  0.80996701  0.33916972     0.09000
C90         C  0.77830551  0.84453267  0.30538011     0.20000
C91         C  0.75619114  0.88293734  0.03998832    -0.54900
C92         C  0.77753840  0.88363216  0.33576170     0.09100
C93         C  0.71102957  0.83430844  0.00281947    -0.54400
C94         C  0.73273518  0.83521181  0.29486944     0.09700
H95         H  0.77641503  0.78844505  0.07391714     0.14200
H96         H  0.79728041  0.84754761  0.27354247    -0.00100
H97         H  0.75401587  0.90849090  0.06386021     0.14500
H98         H  0.67735647  0.82778591  0.33597500     0.14300
O99         O  0.71609478  0.87571003  0.22610593    -0.73400
O100        O  0.63228646  0.91075179  0.12922852    -0.74300
O101        O  0.63463190  0.90439066  0.22217670    -0.63000
O102        O  0.71338642  0.87856525  0.12019039    -0.71400
O103        O  0.69218110  0.81515111  0.11492120    -0.70900
O104        O  0.61154415  0.84087444  0.21843956    -0.62200
O105        O  0.60951209  0.84730501  0.12454699    -0.74700
O106        O  0.69292511  0.81258042  0.22532338    -0.73500
Cu107      Cu  0.67594674  0.89393895  0.17443712     1.04600
Cu108      Cu  0.65187451  0.82620289  0.17051725     1.04300
C109        C  0.71360714  0.84081652  0.24603760     0.92800
C110        C  0.60512705  0.88546185  0.11602261     0.92000
C111        C  0.60773666  0.87765669  0.23165926     0.84100
C112        C  0.71253490  0.84480681  0.09727192     0.90400
C113        C  0.25893229  0.83901758  0.27656477     0.86100
C114        C  0.22365801  0.80771272  0.27862101    -0.54200
C115        C  0.20325659  0.80725841  0.99286292     0.09000
C116        C  0.21740305  0.84458901  0.02337616     0.20000
C117        C  0.23806599  0.87990869  0.28609714    -0.54900
C118        C  0.21624061  0.88129917  0.98946409     0.09100
C119        C  0.28355642  0.83134583  0.32311342    -0.54400
C120        C  0.26360705  0.83849642  0.03332899     0.09700
H121        H  0.21856646  0.78524286  0.25148453     0.14200
H122        H  0.19895161  0.84911664  0.05537691    -0.00100
H123        H  0.24024240  0.90580729  0.26275714     0.14500
H124        H  0.31819734  0.82891113  0.99175185     0.14300
O125        O  0.28104533  0.88101529  0.10158840    -0.73400
O126        O  0.36269233  0.90866866  0.20618400    -0.74300
O127        O  0.36144097  0.91650263  0.11247396    -0.63000
O128        O  0.28135741  0.87720085  0.20722179    -0.71400
O129        O  0.30437518  0.81441630  0.20970406    -0.70900
O130        O  0.38771673  0.85418579  0.11070285    -0.62200
O131        O  0.38591281  0.84523611  0.20426425    -0.74700
O132        O  0.30637634  0.81871089  0.10017205    -0.73500
Cu133      Cu  0.31976048  0.89747904  0.15702774     1.04600
Cu134      Cu  0.34589657  0.83048712  0.15571143     1.04300
C135        C  0.28400952  0.84618891  0.08102174     0.92800
C136        C  0.38959147  0.88200649  0.21739044     0.92000
C137        C  0.39024577  0.89244556  0.10159414     0.84100
C138        C  0.28274971  0.84283710  0.22852237     0.90400
N139        N  0.55370516  0.89739872  0.33592582    -0.37000
N140        N  0.49816179  0.89753119  0.25691469    -0.57600
N141        N  0.43981391  0.89492779  0.32667515    -0.37000
N142        N  0.49891415  0.90338099  0.06896718    -0.57600
C143        C  0.57633139  0.90925108  0.29976488     0.26600
C144        C  0.58103013  0.89696992  0.03818997     0.26600
C145        C  0.41822053  0.90899763  0.29032862     0.26600
C146        C  0.41905144  0.90699605  0.02707456     0.26600
C147        C  0.53178981  0.87847360  0.24148272     0.35200
C148        C  0.46560873  0.88093280  0.23524751     0.35200
C149        C  0.53093278  0.90659567  0.09848029     0.35200
C150        C  0.46477188  0.91093072  0.09351225     0.35200
C151        C  0.61153073  0.92823962  0.31585422    -0.22300
C152        C  0.61796727  0.90863118  0.01985667    -0.22300
C153        C  0.38256326  0.92699227  0.30585528    -0.22300
C154        C  0.38456342  0.92189651  0.00542419    -0.22300
C155        C  0.52087497  0.84977419  0.20804076    -0.23400
C156        C  0.47860663  0.85130291  0.20414913    -0.23400
C157        C  0.51753303  0.92117877  0.14084558    -0.23400
C158        C  0.47520811  0.92370233  0.13777969    -0.23400
C159        C  0.57125095  0.88999930  0.25676901    -0.18700
C160        C  0.57171973  0.89906891  0.08478933    -0.18700
C161        C  0.42505287  0.90807157  0.07457356    -0.18700
C162        C  0.42525641  0.89342747  0.24595059    -0.18700
H163        H  0.63701249  0.93955444  0.29583632     0.14200
H164        H  0.64279248  0.92409890  0.03741587     0.14200
H165        H  0.35781318  0.93926876  0.28523796     0.14200
H166        H  0.36165575  0.94181740  0.02023165     0.14200
H167        H  0.54077935  0.83014035  0.18814795     0.12500
H168        H  0.46007031  0.83289245  0.18115153     0.12500
H169        H  0.53636207  0.93061215  0.16983873     0.12500
H170        H  0.45464444  0.93522312  0.16408346     0.12500
H171        H  0.53032398  0.87604177  0.33300474     0.25700
H172        H  0.46301726  0.87323498  0.32445576     0.25700
C173        C  0.73514500  0.12667434  0.27784522     0.86100
C174        C  0.77085704  0.15704116  0.28166247    -0.54200
C175        C  0.79763579  0.15333724  0.99433129     0.09000
C176        C  0.78167563  0.11730509  0.02572616     0.20000
C177        C  0.75502880  0.08505850  0.28616538    -0.54900
C178        C  0.78245859  0.07974006  0.99281440     0.09100
C179        C  0.71031328  0.13357479  0.32429554    -0.54400
C180        C  0.73538602  0.12547031  0.03445552     0.09700
H181        H  0.77666391  0.18016182  0.25546477     0.14200
H182        H  0.79953934  0.11298645  0.05825866    -0.00100
H183        H  0.75260806  0.05970357  0.26207599     0.14500
H184        H  0.68197202  0.13612395  0.99116743     0.14300
O185        O  0.69179573  0.15371416  0.21007724    -0.73400
O186        O  0.60845281  0.11433261  0.11071693    -0.74300
O187        O  0.60973117  0.12518720  0.20405851    -0.63000
O188        O  0.69130162  0.14779963  0.09973969    -0.71400
O189        O  0.71507171  0.08498848  0.10318754    -0.70900
O190        O  0.63200345  0.06145030  0.20759859    -0.62200
O191        O  0.63403757  0.05176688  0.11434068    -0.74700
O192        O  0.71351410  0.09053933  0.20753966    -0.73500
Cu193      Cu  0.65056484  0.13810764  0.15544607     1.04600
Cu194      Cu  0.67536805  0.07066962  0.15830270     1.04300
C195        C  0.71229334  0.12458472  0.22920485     0.92800
C196        C  0.60550091  0.07584441  0.10297068     0.92000
C197        C  0.60569213  0.08879274  0.21843744     0.84100
C198        C  0.71351967  0.11947396  0.08179545     0.90400
C199        C  0.26139040  0.12063561  0.05287910     0.86100
C200        C  0.22511072  0.15034763  0.05070906    -0.54200
C201        C  0.19732322  0.15247289  0.33925872     0.09000
C202        C  0.21358537  0.11749909  0.30688952     0.20000
C203        C  0.24304196  0.07909083  0.04208229    -0.54900
C204        C  0.21460973  0.07932551  0.33875419     0.09100
C205        C  0.28657335  0.13048895  0.00751434    -0.54400
C206        C  0.25917813  0.12750514  0.29722352     0.09700
H207        H  0.21901554  0.17244876  0.07797351     0.14200
H208        H  0.19522780  0.11324072  0.27469755    -0.00100
H209        H  0.24593442  0.05314609  0.06530211     0.14500
H210        H  0.31337301  0.13794793  0.33944738     0.14300
O211        O  0.36479479  0.05459472  0.13278910    -0.73400
O212        O  0.27907602  0.08662403  0.22961862    -0.74300
O213        O  0.28299161  0.08440519  0.12398773    -0.63000
O214        O  0.36162874  0.05987605  0.22567132    -0.71400
O215        O  0.38263874  0.12421460  0.22286704    -0.70900
O216        O  0.30235929  0.14852362  0.11964862    -0.62200
O217        O  0.30024076  0.15045807  0.22915533    -0.74700
O218        O  0.38528937  0.11885262  0.12909012    -0.73500
Cu219      Cu  0.32029319  0.06967426  0.17809164     1.04600
Cu220      Cu  0.34224985  0.13821007  0.17506936     1.04300
C221        C  0.39094587  0.08101183  0.11977284     0.92800
C222        C  0.27979554  0.12178746  0.24924584     0.92000
C223        C  0.28342802  0.11827320  0.10138267     0.84100
C224        C  0.38782868  0.08733199  0.23497722     0.90400
N225        N  0.43883894  0.09348572  0.01024670    -0.37000
N226        N  0.49809547  0.07112669  0.25917715    -0.57600
N227        N  0.55901212  0.08446028  0.00027705    -0.37000
N228        N  0.49700163  0.06351351  0.07091687    -0.57600
C229        C  0.42043594  0.06016228  0.30384453     0.26600
C230        C  0.41499093  0.07392185  0.04116274     0.26600
C231        C  0.57802664  0.06580205  0.29367850     0.26600
C232        C  0.57752895  0.05841042  0.02914879     0.26600
C233        C  0.46371545  0.08839629  0.24320609     0.35200
C234        C  0.52977198  0.08868985  0.23693991     0.35200
C235        C  0.46516621  0.06038968  0.10063669     0.35200
C236        C  0.53129474  0.05646766  0.09541411     0.35200
C237        C  0.38531212  0.04217255  0.32138164    -0.22300
C238        C  0.37742701  0.06472243  0.02255169    -0.22300
C239        C  0.61409538  0.04956379  0.31025344    -0.22300
C240        C  0.61290752  0.04354260  0.00936372    -0.22300
C241        C  0.47328608  0.11707778  0.20925493    -0.23400
C242        C  0.51555242  0.11724570  0.20529021    -0.23400
C243        C  0.47887584  0.04598663  0.14295688    -0.23400
C244        C  0.52120666  0.04405956  0.13988512    -0.23400
C245        C  0.42489520  0.07589715  0.25919556    -0.18700
C246        C  0.42443517  0.06932101  0.08758002    -0.18700
C247        C  0.57089962  0.05950841  0.07645889    -0.18700
C248        C  0.57050389  0.07850065  0.24826759    -0.18700
H249        H  0.36077304  0.02790003  0.30217914     0.14200
H250        H  0.35163656  0.05059983  0.03968795     0.14200
H251        H  0.63945070  0.03762133  0.29041209     0.14200
H252        H  0.63577876  0.02454078  0.02581288     0.14200
H253        H  0.45248938  0.13573203  0.18925856     0.12500
H254        H  0.53335923  0.13624253  0.18223296     0.12500
H255        H  0.46027422  0.03677631  0.17214018     0.12500
H256        H  0.54202979  0.03325772  0.16640236     0.12500
H257        H  0.46550474  0.10938091  0.01733673     0.25700
H258        H  0.53679469  0.10518676  0.01057652     0.25700
C259        C  0.15273834  0.71513949  0.05179954     0.86100
C260        C  0.18086923  0.75204939  0.04558202    -0.54200
C261        C  0.17050707  0.77554042  0.33150129     0.09000
C262        C  0.13540015  0.75854933  0.29965254     0.20000
C263        C  0.10956963  0.73313865  0.05080354    -0.54900
C264        C  0.09652567  0.75810405  0.33176146     0.09100
C265        C  0.15615532  0.69138889  0.00435805    -0.54400
C266        C  0.14616303  0.71278469  0.29161170     0.09700
H267        H  0.20624083  0.75863972  0.06880705     0.14200
H268        H  0.13144529  0.77605908  0.26686915    -0.00100
H269        H  0.08813850  0.72909530  0.07926467     0.14500
H270        H  0.15944007  0.66046499  0.33552710     0.14300
O271        O  0.22378485  0.61496790  0.22219035    -0.73400
O272        O  0.19581735  0.69515091  0.11958092    -0.74300
O273        O  0.19107715  0.69596995  0.22611245    -0.63000
O274        O  0.23225445  0.61488227  0.12884417    -0.71400
O275        O  0.17090072  0.58668348  0.12509746    -0.70900
O276        O  0.12879734  0.67049524  0.22230667    -0.62200
O277        O  0.13470288  0.66713342  0.11450088    -0.74700
O278        O  0.16070920  0.59030923  0.21840852    -0.73500
Cu279      Cu  0.21240735  0.65712638  0.17429310     1.04600
Cu280      Cu  0.14618016  0.62878017  0.16962652     1.04300
C281        C  0.19755278  0.58739686  0.23162259     0.92800
C282        C  0.16174960  0.69107050  0.09751832     0.92000
C283        C  0.15522494  0.69295947  0.24379481     0.84100
C284        C  0.20934652  0.58540115  0.11635089     0.90400
C285        C  0.14759184  0.24451326  0.27961315     0.86100
C286        C  0.17431467  0.20646883  0.28570242    -0.54200
C287        C  0.17411315  0.18276686  0.99706020     0.09000
C288        C  0.14223554  0.20251855  0.03057281     0.20000
C289        C  0.10394736  0.22829654  0.28160909    -0.54900
C290        C  0.10240513  0.20662522  0.00044883     0.09100
C291        C  0.15304592  0.26821803  0.32720566    -0.54400
C292        C  0.15796934  0.24673653  0.03823592     0.09700
H293        H  0.19906546  0.19878406  0.26213384     0.14200
H294        H  0.13791880  0.18524200  0.06344459    -0.00100
H295        H  0.08228748  0.23262135  0.25334289     0.14500
H296        H  0.17313156  0.29846672  0.99437775     0.14300
O297        O  0.23770310  0.34132771  0.11935179    -0.73400
O298        O  0.19383340  0.26347418  0.21552049    -0.74300
O299        O  0.19979432  0.26203518  0.10830548    -0.63000
O300        O  0.22771553  0.34329153  0.21326398    -0.71400
O301        O  0.16477050  0.36790065  0.20807087    -0.70900
O302        O  0.13879469  0.29040786  0.10353732    -0.62200
O303        O  0.13169885  0.28916091  0.21101452    -0.74700
O304        O  0.17654246  0.37016784  0.11485696    -0.73500
Cu305      Cu  0.21647174  0.30052724  0.16429036     1.04600
Cu306      Cu  0.15046459  0.32932396  0.15879767     1.04300
C307        C  0.21508859  0.37092245  0.10692890     0.92800
C308        C  0.15799329  0.26711888  0.23302708     0.92000
C309        C  0.16576523  0.26659009  0.08606258     0.84100
C310        C  0.20107415  0.37054235  0.22318115     0.90400
N311        N  0.21320415  0.53903409  0.00610684    -0.37000
N312        N  0.22990396  0.47887363  0.07199763    -0.57600
N313        N  0.20739473  0.42114561  0.33256673    -0.37000
N314        N  0.21643955  0.47856713  0.26113795    -0.57600
C315        C  0.22995738  0.56167040  0.03997047     0.26600
C316        C  0.22343127  0.55720783  0.30279067     0.26600
C317        C  0.23665571  0.39699879  0.03249947     0.26600
C318        C  0.22365532  0.39900988  0.29784888     0.26600
C319        C  0.23169955  0.51121837  0.10117092     0.35200
C320        C  0.23511421  0.44488766  0.09767451     0.35200
C321        C  0.19877801  0.51182712  0.24281717     0.35200
C322        C  0.20029583  0.44588664  0.23958313     0.35200
C323        C  0.24246938  0.59889754  0.02306097    -0.22300
C324        C  0.24089327  0.59250753  0.32014688    -0.22300
C325        C  0.25003993  0.36050145  0.01411731    -0.22300
C326        C  0.23974662  0.36317697  0.31508762    -0.22300
C327        C  0.24348444  0.49803547  0.14471493    -0.23400
C328        C  0.24531199  0.45573424  0.14262591    -0.23400
C329        C  0.17121232  0.50046469  0.20832171    -0.23400
C330        C  0.17220156  0.45831839  0.20625570    -0.23400
C331        C  0.22624016  0.55220304  0.08660806    -0.18700
C332        C  0.20983540  0.55136778  0.25750547    -0.18700
C333        C  0.21172250  0.40587869  0.25206743    -0.18700
C334        C  0.23268838  0.40475116  0.07968705    -0.18700
H335        H  0.25527497  0.62411411  0.04246426     0.14200
H336        H  0.25509473  0.61691264  0.30079076     0.14200
H337        H  0.26436582  0.33552789  0.03253682     0.14200
H338        H  0.25262439  0.33801784  0.29573876     0.14200
H339        H  0.25189445  0.51704287  0.17389441     0.12500
H340        H  0.25492957  0.43536882  0.17010518     0.12500
H341        H  0.15276581  0.51998907  0.18649882     0.12500
H342        H  0.15449493  0.43956793  0.18279379     0.12500
H343        H  0.18424046  0.51353873  0.33193824     0.25700
H344        H  0.18665259  0.44489443  0.32809715     0.25700
O345        O  0.10064377  0.02335232  0.04150892    -0.73400
O346        O  0.18181259  0.93179704  0.03525794    -0.74300
O347        O  0.18508463  0.02035264  0.03514254    -0.63000
O348        O  0.09803752  0.93687648  0.04134984    -0.71400
O349        O  0.09510644  0.93936594  0.29015899    -0.70900
O350        O  0.17876601  0.02887890  0.29337278    -0.62200
O351        O  0.17984621  0.93953848  0.29350086    -0.74700
O352        O  0.09433887  0.02537657  0.29002931    -0.73500
Cu353      Cu  0.14180011  0.97820550  0.04098522     1.04600
Cu354      Cu  0.13741216  0.98317970  0.28909580     1.04300
C355        C  0.08592822  0.03806315  0.00385894     0.92800
C356        C  0.18955965  0.92011635  0.33065468     0.92000
C357        C  0.19024266  0.04152686  0.33334055     0.84100
C358        C  0.08084955  0.92520476  0.32823494     0.90400
O359        O  0.95936224  0.08656914  0.04475156    -0.73400
O360        O  0.05083803  0.17029231  0.04528494    -0.74300
O361        O  0.95992927  0.17273567  0.04534676    -0.63000
O362        O  0.04488061  0.08486652  0.04495154    -0.71400
O363        O  0.03863266  0.08635102  0.28897666    -0.70900
O364        O  0.94707244  0.16959391  0.28455369    -0.62200
O365        O  0.03753848  0.17255155  0.28602056    -0.74700
O366        O  0.95302019  0.08454051  0.28748411    -0.73500
Cu367      Cu  0.00370208  0.12918892  0.04792203     1.04600
Cu368      Cu  0.99419039  0.12865922  0.28394713     1.04300
C369        C  0.94683148  0.07186321  0.00597659     0.92800
C370        C  0.06366443  0.18279583  0.00571442     0.92000
C371        C  0.94073829  0.18218430  0.00785885     0.84100
C372        C  0.05731495  0.07181740  0.00565963     0.90400
O373        O  0.04340806  0.87483018  0.04322926    -0.73400
O374        O  0.95047512  0.79277460  0.04743069    -0.74300
O375        O  0.04208369  0.78849491  0.04626720    -0.63000
O376        O  0.95799725  0.87769700  0.04493839    -0.71400
O377        O  0.95303715  0.87748155  0.28919883    -0.70900
O378        O  0.04475213  0.79471566  0.28734648    -0.62200
O379        O  0.95429091  0.79189914  0.28868929    -0.74700
O380        O  0.03821926  0.87965614  0.28800738    -0.73500
Cu381      Cu  0.99867025  0.83289715  0.04830495     1.04600
Cu382      Cu  0.99744686  0.83542662  0.28552125     1.04300
C383        C  0.05118562  0.89260685  0.32711530     0.92800
C384        C  0.93551510  0.78230817  0.32628362     0.92000
C385        C  0.05807859  0.78246925  0.32681308     0.84100
C386        C  0.94045017  0.89212242  0.32788271     0.90400
O387        O  0.81852014  0.02918409  0.03797759    -0.73400
O388        O  0.90135408  0.93829017  0.04199921    -0.74300
O389        O  0.90324391  0.02484974  0.04348381    -0.63000
O390        O  0.81643555  0.94013807  0.03563550    -0.71400
O391        O  0.81363557  0.93418699  0.29061165    -0.70900
O392        O  0.89613215  0.02494357  0.28973522    -0.62200
O393        O  0.89788731  0.93885047  0.28912700    -0.74700
O394        O  0.81145868  0.02366161  0.29246944    -0.73500
Cu395      Cu  0.85949528  0.98296117  0.04248477     1.04600
Cu396      Cu  0.85439008  0.98054655  0.28776050     1.04300
C397        C  0.80767593  0.04238209  0.99800204     0.92800
C398        C  0.91594447  0.92392114  0.00414467     0.92000
C399        C  0.91696447  0.03891444  0.00524921     0.84100
C400        C  0.80662826  0.92199234  0.99763385     0.90400
C401        C  0.85282124  0.72040041  0.61403565     0.86100
C402        C  0.82302989  0.75664043  0.61706445    -0.54200
C403        C  0.82323748  0.77732155  0.32606844     0.09000
C404        C  0.85972695  0.76127855  0.35668923     0.20000
C405        C  0.89482181  0.73951338  0.62297103    -0.54900
C406        C  0.89665321  0.75908922  0.32263493     0.09100
C407        C  0.84497752  0.69566254  0.66055098    -0.54400
C408        C  0.84968904  0.71610308  0.36786401     0.09700
H409        H  0.80040671  0.76297138  0.59034146     0.14200
H410        H  0.86562177  0.78000447  0.38820103    -0.00100
H411        H  0.92019850  0.73682664  0.59890142     0.14500
H412        H  0.83498613  0.66188831  0.32779789     0.14300
O413        O  0.85372471  0.59368417  0.44620077    -0.73400
O414        O  0.82367279  0.67849193  0.54679699    -0.74300
O415        O  0.82579251  0.67693598  0.43619297    -0.63000
O416        O  0.84786105  0.59517545  0.54005337    -0.71400
O417        O  0.91279986  0.61437398  0.54041210    -0.70900
O418        O  0.89010787  0.69700533  0.43693667    -0.62200
O419        O  0.88804116  0.69705813  0.54301981    -0.74700
O420        O  0.91825953  0.61445672  0.44690892    -0.73500
Cu421      Cu  0.83500268  0.63653030  0.49195559     1.04600
Cu422      Cu  0.90400016  0.65743632  0.49192821     1.04300
C423        C  0.89145315  0.58821614  0.43596940     0.92800
C424        C  0.85411980  0.69745722  0.56537732     0.92000
C425        C  0.85512457  0.69643126  0.41637428     0.84100
C426        C  0.88469838  0.58947817  0.55251497     0.90400
C427        C  0.85004067  0.24423774  0.38146448     0.86100
C428        C  0.82229171  0.20635633  0.37802020    -0.54200
C429        C  0.82813684  0.18767538  0.67384378     0.09000
C430        C  0.86344281  0.20234722  0.64145852     0.21600
C431        C  0.89252944  0.22851453  0.36927155    -0.54900
C432        C  0.90196208  0.20283605  0.67310544     0.09100
C433        C  0.83791486  0.26967978  0.33694765    -0.54400
C434        C  0.85369082  0.24762497  0.63102765     0.09700
H435        H  0.80098577  0.19800848  0.40532762     0.14200
H436        H  0.86711703  0.18351358  0.60960019    -0.00100
H437        H  0.91861881  0.23201091  0.39227758     0.14500
H438        H  0.84432349  0.30274402  0.67217469     0.14300
O439        O  0.84803669  0.36630719  0.55211218    -0.73400
O440        O  0.82228318  0.28341738  0.45081232    -0.74300
O441        O  0.82531404  0.28398910  0.56195813    -0.63000
O442        O  0.84911948  0.36708212  0.45833904    -0.71400
O443        O  0.91445029  0.34924508  0.45907061    -0.70900
O444        O  0.88988643  0.26491040  0.55916866    -0.62200
O445        O  0.88725659  0.26658735  0.45239403    -0.74700
O446        O  0.91320525  0.34741982  0.55212130    -0.73500
Cu447      Cu  0.83345191  0.32461939  0.50574673     1.04600
Cu448      Cu  0.90294235  0.30521289  0.50560073     1.04300
C449        C  0.88511549  0.37237398  0.56329999     0.92800
C450        C  0.85263331  0.26569964  0.43095160     0.92000
C451        C  0.85592108  0.26588007  0.58143746     0.84100
C452        C  0.88638284  0.37411104  0.44736218     0.90400
N453        N  0.87041938  0.54113523  0.33346928    -0.37000
N454        N  0.89988498  0.48014032  0.39909731    -0.57600
N455        N  0.86097688  0.42137289  0.34240311    -0.37000
N456        N  0.90028275  0.48164666  0.59229686    -0.57600
C457        C  0.89782916  0.56106929  0.35966769     0.26600
C458        C  0.91275420  0.56136595  0.62496298     0.26600
C459        C  0.88594918  0.39886820  0.36943686     0.26600
C460        C  0.91426314  0.40293863  0.63258663     0.26600
C461        C  0.90782475  0.51392350  0.42406537     0.35200
C462        C  0.90473918  0.44805092  0.42798199     0.35200
C463        C  0.88277058  0.51390033  0.57116321     0.35200
C464        C  0.88274482  0.44779424  0.57541643     0.35200
C465        C  0.90945248  0.59699932  0.33879860    -0.22300
C466        C  0.93303906  0.59629047  0.63883971    -0.22300
C467        C  0.89484327  0.36194886  0.34952295    -0.22300
C468        C  0.93471463  0.36828068  0.64772349    -0.22300
C469        C  0.92210776  0.50324865  0.46767689    -0.23400
C470        C  0.92056496  0.46104156  0.46995819    -0.23400
C471        C  0.85376662  0.50059066  0.53942440    -0.23400
C472        C  0.85374489  0.45830614  0.54210253    -0.23400
C473        C  0.90296014  0.55368736  0.40648840    -0.18700
C474        C  0.89496734  0.55418006  0.58173042    -0.18700
C475        C  0.89589218  0.40861026  0.58932901    -0.18700
C476        C  0.89523302  0.40778267  0.41489359    -0.18700
H477        H  0.92867541  0.62067845  0.35324479     0.14200
H478        H  0.94433548  0.62089821  0.61745626     0.14200
H479        H  0.91260925  0.33716737  0.36402615     0.14200
H480        H  0.94715034  0.34377078  0.62701882     0.14200
H481        H  0.93328123  0.52367315  0.49434558     0.12500
H482        H  0.93038141  0.44208302  0.49863045     0.12500
H483        H  0.83510161  0.51899869  0.51653658     0.12500
H484        H  0.83516436  0.43804266  0.52130512     0.12500
H485        H  0.85193321  0.51758740  0.34542790     0.25700
H486        H  0.84542603  0.44770978  0.35217038     0.25700
C487        C  0.73528201  0.83790871  0.38276458     0.86100
C488        C  0.77073212  0.80737189  0.37940387    -0.54200
C489        C  0.79427990  0.81066399  0.67012921     0.09000
C490        C  0.77940131  0.84669384  0.63829917     0.20000
C491        C  0.75533529  0.87940821  0.37496137    -0.54900
C492        C  0.77873898  0.88482930  0.67079305     0.09100
C493        C  0.71028225  0.83144033  0.33613561    -0.54400
C494        C  0.73373805  0.83763427  0.62809429     0.09700
H495        H  0.77623028  0.78409228  0.40554177     0.14200
H496        H  0.79804398  0.85085481  0.60638492    -0.00100
H497        H  0.75307861  0.90451091  0.39943255     0.14500
H498        H  0.67892884  0.82769214  0.66939654     0.14300
O499        O  0.71401038  0.87598555  0.55838927    -0.73400
O500        O  0.62917467  0.89628068  0.45698733    -0.74300
O501        O  0.63138929  0.90082248  0.55095068    -0.63000
O502        O  0.71196377  0.87298949  0.45330103    -0.71400
O503        O  0.69428897  0.80845835  0.44969678    -0.70900
O504        O  0.61183602  0.83602784  0.55224175    -0.62200
O505        O  0.61021699  0.83157331  0.45706835    -0.74700
O506        O  0.69519968  0.81140874  0.56011487    -0.73500
Cu507      Cu  0.67323687  0.88819686  0.50476516     1.04600
Cu508      Cu  0.65338315  0.81909044  0.50506677     1.04300
C509        C  0.71408796  0.84145775  0.57947031     0.92800
C510        C  0.60446746  0.86828287  0.44407359     0.92000
C511        C  0.60596028  0.87348539  0.56249572     0.84100
C512        C  0.71258230  0.83909550  0.43107832     0.90400
C513        C  0.25994734  0.83165849  0.61342544     0.86100
C514        C  0.22265185  0.80340119  0.61663565    -0.54200
C515        C  0.20094574  0.80864454  0.31905788     0.09000
C516        C  0.21509694  0.84259797  0.35399195     0.20000
C517        C  0.24297167  0.87419179  0.62349389    -0.54900
C518        C  0.21527007  0.88273679  0.32510152     0.09100
C519        C  0.28521639  0.82195540  0.65925290    -0.54400
C520        C  0.26074497  0.83311409  0.36427856     0.09700
H521        H  0.21536817  0.78115255  0.58988688     0.14200
H522        H  0.19603453  0.84446171  0.38587311    -0.00100
H523        H  0.24655375  0.89970478  0.59981694     0.14500
H524        H  0.31646967  0.82755719  0.32343737     0.14300
O525        O  0.27942893  0.86828377  0.43603058    -0.73400
O526        O  0.36449101  0.88887532  0.53508203    -0.74300
O527        O  0.36269185  0.88815894  0.44200428    -0.63000
O528        O  0.28208870  0.86638236  0.54159338    -0.71400
O529        O  0.29844752  0.80147208  0.54466240    -0.70900
O530        O  0.38229825  0.82351394  0.44129471    -0.62200
O531        O  0.38290979  0.82379919  0.53630149    -0.74700
O532        O  0.29772852  0.80364648  0.43258344    -0.73500
Cu533      Cu  0.32065609  0.87948960  0.48872127     1.04600
Cu534      Cu  0.33966347  0.81011991  0.48867367     1.04300
C535        C  0.27950204  0.83449679  0.41368390     0.92800
C536        C  0.38909645  0.86095882  0.54774543     0.92000
C537        C  0.38763751  0.86057187  0.42953130     0.84100
C538        C  0.28137785  0.83253040  0.56403234     0.90400
N539        N  0.55386880  0.87822537  0.66654883    -0.37000
N540        N  0.49483074  0.88889690  0.58829609    -0.57600
N541        N  0.43781967  0.86522261  0.65880783    -0.37000
N542        N  0.49570413  0.88494411  0.40821072    -0.57600
C543        C  0.57371848  0.89823292  0.63296962     0.26600
C544        C  0.57582190  0.90357895  0.37468788     0.26600
C545        C  0.41407628  0.87986655  0.62449732     0.26600
C546        C  0.41693263  0.89939005  0.36461533     0.26600
C547        C  0.53005061  0.87490159  0.57005367     0.35200
C548        C  0.46435390  0.86958692  0.56530364     0.35200
C549        C  0.52929743  0.86348445  0.42037897     0.35200
C550        C  0.46318299  0.86021187  0.41318447     0.35200
C551        C  0.60830116  0.91660319  0.65118933    -0.22300
C552        C  0.61118636  0.92470978  0.36354118    -0.22300
C553        C  0.37589980  0.89006705  0.64105263    -0.22300
C554        C  0.38161096  0.92088100  0.35318951    -0.22300
C555        C  0.52184512  0.84684131  0.53548963    -0.23400
C556        C  0.47995473  0.84333648  0.53278797    -0.23400
C557        C  0.51826640  0.82392436  0.43148858    -0.23400
C558        C  0.47601637  0.82191877  0.42713718    -0.23400
C559        C  0.56896770  0.88576324  0.58711637    -0.18700
C560        C  0.56916213  0.87936317  0.41412928    -0.18700
C561        C  0.42310001  0.87324706  0.40243016    -0.18700
C562        C  0.42322041  0.87232857  0.57843986    -0.18700
H563        H  0.63210183  0.93233851  0.63230942     0.14200
H564        H  0.63641072  0.93291312  0.38589093     0.14200
H565        H  0.34942363  0.89979120  0.62140168     0.14200
H566        H  0.35571428  0.92817080  0.37482130     0.14200
H567        H  0.54364874  0.82800795  0.51752128     0.12500
H568        H  0.46291882  0.82065859  0.51386337     0.12500
H569        H  0.53838086  0.79878775  0.43967545     0.12500
H570        H  0.45732865  0.79510920  0.43203967     0.12500
H571        H  0.53252808  0.85562056  0.65965055     0.25700
H572        H  0.46457907  0.84885209  0.65409095     0.25700
C573        C  0.73918676  0.13181193  0.61360496     0.86100
C574        C  0.77535560  0.16106023  0.61897105    -0.54200
C575        C  0.79296725  0.15443892  0.32248479     0.09000
C576        C  0.77826160  0.11985764  0.35565874     0.20000
C577        C  0.75797354  0.08948205  0.62061043    -0.54900
C578        C  0.77734002  0.08070156  0.32525886     0.09100
C579        C  0.71355867  0.13827018  0.65976629    -0.54400
C580        C  0.73304238  0.13015091  0.36551495     0.09700
H581        H  0.78230009  0.18451846  0.59351626     0.14200
H582        H  0.79708204  0.11674151  0.38767257    -0.00100
H583        H  0.75583217  0.06535663  0.59485398     0.14500
H584        H  0.67758840  0.13873900  0.32445037     0.14300
O585        O  0.70228212  0.16578636  0.54601855    -0.73400
O586        O  0.61574338  0.15202731  0.44279982    -0.74300
O587        O  0.61608176  0.15488839  0.53775260    -0.63000
O588        O  0.70162166  0.16315765  0.43431214    -0.71400
O589        O  0.71154630  0.09663192  0.43700838    -0.70900
O590        O  0.62896886  0.08853241  0.53998668    -0.62200
O591        O  0.62754393  0.08565609  0.44820239    -0.74700
O592        O  0.71350266  0.09977796  0.54208028    -0.73500
Cu593      Cu  0.65995009  0.16192644  0.49009790     1.04600
Cu594      Cu  0.67169565  0.09094363  0.49189625     1.04300
C595        C  0.71721667  0.13322900  0.56468309     0.92800
C596        C  0.60624117  0.11521111  0.43342794     0.92000
C597        C  0.60710205  0.11904723  0.55141234     0.84100
C598        C  0.71508961  0.13034351  0.41486719     0.90400
C599        C  0.25496152  0.12738326  0.38484363     0.86100
C600        C  0.21896419  0.15677836  0.37973583    -0.54200
C601        C  0.20121819  0.15112043  0.67567187     0.09000
C602        C  0.21892112  0.11801300  0.64210956     0.20000
C603        C  0.23599330  0.08512884  0.37860686    -0.54900
C604        C  0.22350141  0.07901310  0.67271759     0.09100
C605        C  0.28059587  0.13315438  0.33881297    -0.54400
C606        C  0.26307285  0.13237136  0.63146084     0.09700
H607        H  0.21256414  0.18065427  0.40488429     0.14200
H608        H  0.20011604  0.11320686  0.61036010    -0.00100
H609        H  0.23809558  0.06125808  0.40468305     0.14500
H610        H  0.31738306  0.14624256  0.67254569     0.14300
O611        O  0.36653915  0.08499228  0.45737237    -0.73400
O612        O  0.28488853  0.09740283  0.56088245    -0.74300
O613        O  0.28184590  0.09676685  0.45620809    -0.63000
O614        O  0.36926844  0.08667140  0.54916255    -0.71400
O615        O  0.38074843  0.15342550  0.54855907    -0.70900
O616        O  0.29279114  0.16274430  0.44934437    -0.62200
O617        O  0.29526742  0.16382362  0.56088794    -0.74700
O618        O  0.37999490  0.15095575  0.45376483    -0.73500
Cu619      Cu  0.32434958  0.08978789  0.50593199     1.04600
Cu620      Cu  0.33616426  0.16073319  0.50303524     1.04300
C621        C  0.38873182  0.11416997  0.44281117     0.92800
C622        C  0.28145820  0.13168093  0.58181882     0.92000
C623        C  0.27753367  0.12966013  0.43271167     0.84100
C624        C  0.39081659  0.11736123  0.56008809     0.90400
N625        N  0.44144147  0.07734136  0.33848303    -0.37000
N626        N  0.49957582  0.10344800  0.59009438    -0.57600
N627        N  0.55558970  0.08058595  0.32907928    -0.37000
N628        N  0.49777141  0.09565594  0.40734152    -0.57600
C629        C  0.41983908  0.09272225  0.63170785     0.26600
C630        C  0.41822384  0.07543126  0.37681279     0.26600
C631        C  0.57965423  0.09444299  0.62529441     0.26600
C632        C  0.57816824  0.07786438  0.36752911     0.26600
C633        C  0.46578737  0.12190223  0.57412741     0.35200
C634        C  0.53178977  0.12230383  0.57044304     0.35200
C635        C  0.46469618  0.11753125  0.42066263     0.35200
C636        C  0.53121142  0.11844580  0.41534896     0.35200
C637        C  0.38371062  0.07476098  0.64686737    -0.22300
C638        C  0.38362412  0.05221614  0.36770454    -0.22300
C639        C  0.61556035  0.07590029  0.63952251    -0.22300
C640        C  0.61430992  0.05704609  0.35724452    -0.22300
C641        C  0.47625335  0.15291151  0.54387997    -0.23400
C642        C  0.51858400  0.15322596  0.54162121    -0.23400
C643        C  0.47717229  0.15506250  0.43713355    -0.23400
C644        C  0.51962508  0.15552777  0.43409307    -0.23400
C645        C  0.42649531  0.10987415  0.58816060    -0.18700
C646        C  0.42424793  0.10324038  0.41324151    -0.18700
C647        C  0.57114964  0.10460338  0.40483907    -0.18700
C648        C  0.57218979  0.11177624  0.58202100    -0.18700
H649        H  0.35826975  0.06374847  0.62648374     0.14200
H650        H  0.35758611  0.04629314  0.38965330     0.14200
H651        H  0.64131893  0.06640209  0.61872748     0.14200
H652        H  0.64052626  0.05140334  0.37910388     0.14200
H653        H  0.45578412  0.17460129  0.52789293     0.12500
H654        H  0.53737572  0.17537709  0.52396895     0.12500
H655        H  0.45786221  0.18021957  0.44734849     0.12500
H656        H  0.53933138  0.18098759  0.44218164     0.12500
H657        H  0.46389807  0.09913035  0.33302028     0.25700
H658        H  0.53172506  0.10116516  0.32563663     0.25700
C659        C  0.14444530  0.71882897  0.37909359     0.86100
C660        C  0.17402997  0.75486951  0.37278693    -0.54200
C661        C  0.17018681  0.77418711  0.67056200     0.09000
C662        C  0.13318760  0.75976952  0.64009477     0.20000
C663        C  0.10238189  0.73731462  0.37230678    -0.54900
C664        C  0.09617288  0.75926149  0.67451300     0.09100
C665        C  0.15090399  0.69238685  0.33391215    -0.54400
C666        C  0.14156073  0.71426301  0.62867196     0.09700
H667        H  0.19715989  0.76253230  0.39847714     0.14200
H668        H  0.12825310  0.77883955  0.60864597    -0.00100
H669        H  0.07894557  0.73521338  0.39894391     0.14500
H670        H  0.15396499  0.65945215  0.66904590     0.14300
O671        O  0.19550413  0.61091098  0.54892875    -0.73400
O672        O  0.18223306  0.69561210  0.44950035    -0.74300
O673        O  0.17968791  0.69519890  0.55784765    -0.63000
O674        O  0.19814089  0.61146666  0.45629283    -0.71400
O675        O  0.13267046  0.59501313  0.45312072    -0.70900
O676        O  0.11404357  0.68017015  0.55752066    -0.62200
O677        O  0.11660239  0.68060078  0.44704214    -0.74700
O678        O  0.12968741  0.59502423  0.54832632    -0.73500
Cu679      Cu  0.19064410  0.65479661  0.50320725     1.04600
Cu680      Cu  0.12043061  0.63853704  0.50130889     1.04300
C681        C  0.16623074  0.58770013  0.56096173     0.92800
C682        C  0.14801043  0.69722951  0.42774036     0.92000
C683        C  0.14493933  0.69644807  0.57858849     0.84100
C684        C  0.16981526  0.58785930  0.44223142     0.90400
C685        C  0.14650636  0.24097029  0.61666558     0.86100
C686        C  0.17434676  0.20353832  0.62131075    -0.54200
C687        C  0.16710783  0.18436306  0.32484803     0.09000
C688        C  0.13162324  0.20181983  0.35526645     0.20000
C689        C  0.10374709  0.22452144  0.62369464    -0.54900
C690        C  0.09489882  0.20618154  0.32062999     0.09100
C691        C  0.15495481  0.26615802  0.66264379    -0.54400
C692        C  0.14455241  0.24598688  0.36757792     0.09700
H693        H  0.19739027  0.19581378  0.59561326     0.14200
H694        H  0.12485917  0.18289286  0.38636302    -0.00100
H695        H  0.07998781  0.22764596  0.59746245     0.14500
H696        H  0.16291193  0.29975083  0.32853385     0.14300
O697        O  0.19928249  0.34823705  0.45044641    -0.73400
O698        O  0.18457266  0.26339158  0.54697825    -0.74300
O699        O  0.18302815  0.26485307  0.43863048    -0.63000
O700        O  0.19993120  0.34735774  0.54301631    -0.71400
O701        O  0.13438453  0.36394944  0.54224314    -0.70900
O702        O  0.11706596  0.27857375  0.43895142    -0.62200
O703        O  0.11900790  0.27897088  0.54860249    -0.74700
O704        O  0.13344405  0.36348326  0.44682309    -0.73500
Cu705      Cu  0.19350055  0.30441620  0.49468808     1.04600
Cu706      Cu  0.12318904  0.32045114  0.49424829     1.04300
C707        C  0.17047549  0.37099934  0.43641232     0.92800
C708        C  0.15029838  0.26241853  0.56835785     0.92000
C709        C  0.14818862  0.26311144  0.41784106     0.84100
C710        C  0.17094692  0.37095715  0.55547808     0.90400
N711        N  0.20597496  0.53626808  0.33732183    -0.37000
N712        N  0.18895136  0.47926271  0.40608056    -0.57600
N713        N  0.19796204  0.42249354  0.66406245    -0.37000
N714        N  0.18567999  0.47981964  0.59307249    -0.57600
C715        C  0.20836134  0.55915096  0.37584226     0.26600
C716        C  0.19777906  0.56099731  0.63157022     0.26600
C717        C  0.20911574  0.39860980  0.37109829     0.26600
C718        C  0.20396671  0.39976486  0.62582377     0.26600
C719        C  0.16801520  0.51213532  0.42144909     0.35200
C720        C  0.16779127  0.44571866  0.41799887     0.35200
C721        C  0.16429666  0.51268720  0.57906702     0.35200
C722        C  0.16670694  0.44638491  0.57605614     0.35200
C723        C  0.23123798  0.59390162  0.36660983    -0.22300
C724        C  0.21584699  0.59784453  0.64412989    -0.22300
C725        C  0.23060027  0.36274447  0.36163316    -0.22300
C726        C  0.22523842  0.36464490  0.63765598    -0.22300
C727        C  0.13299003  0.49946287  0.44390413    -0.23400
C728        C  0.13288224  0.45713205  0.44184082    -0.23400
C729        C  0.13120902  0.50029949  0.55263874    -0.23400
C730        C  0.13267232  0.45802999  0.55084489    -0.23400
C731        C  0.18163440  0.55253952  0.41315635    -0.18700
C732        C  0.17601527  0.55296043  0.59062755    -0.18700
C733        C  0.18078952  0.40633620  0.58545892    -0.18700
C734        C  0.18189413  0.40582391  0.40796399    -0.18700
H735        H  0.23755139  0.61961987  0.38887163     0.14200
H736        H  0.22221800  0.62420673  0.62291929     0.14200
H737        H  0.23604858  0.33663790  0.38356785     0.14200
H738        H  0.23312575  0.33896479  0.61597454     0.14200
H739        H  0.10907199  0.51851409  0.45786940     0.12500
H740        H  0.10894229  0.43738117  0.45439882     0.12500
H741        H  0.10733617  0.51938464  0.53853207     0.12500
H742        H  0.11003400  0.43833243  0.53532093     0.12500
H743        H  0.17284797  0.51319461  0.67099293     0.25700
H744        H  0.17630543  0.44554246  0.66676196     0.25700
O745        O  0.09421546  0.02511822  0.36745387    -0.73400
O746        O  0.17689030  0.93275785  0.37018327    -0.74300
O747        O  0.17948901  0.02251762  0.37029032    -0.63000
O748        O  0.09242393  0.93884513  0.36757995    -0.71400
O749        O  0.10247152  0.93743502  0.63366218    -0.70900
O750        O  0.18684183  0.02694054  0.62980047    -0.62200
O751        O  0.18773094  0.93698859  0.63206668    -0.74700
O752        O  0.10208270  0.02317196  0.63148593    -0.73500
Cu753      Cu  0.13598060  0.97992330  0.37165891     1.04600
Cu754      Cu  0.14520600  0.98094755  0.62909340     1.04300
C755        C  0.08134853  0.03938169  0.32858532     0.92800
C756        C  0.19780075  0.91754589  0.66910101     0.92000
C757        C  0.19979163  0.04028104  0.66889328     0.84100
C758        C  0.08833389  0.92456623  0.67245818     0.90400
O759        O  0.95288066  0.08717502  0.36488497    -0.73400
O760        O  0.04230514  0.17095263  0.36306069    -0.74300
O761        O  0.95298906  0.17219580  0.36136531    -0.63000
O762        O  0.03798774  0.08607925  0.36640140    -0.71400
O763        O  0.04480123  0.08269178  0.63200099    -0.70900
O764        O  0.95292462  0.16515730  0.62962533    -0.62200
O765        O  0.04204031  0.16793906  0.63102947    -0.74700
O766        O  0.95890070  0.08091319  0.63089253    -0.73500
Cu767      Cu  0.99638694  0.12970366  0.36654786     1.04600
Cu768      Cu  0.99983336  0.12448359  0.62818130     1.04300
C769        C  0.94010919  0.07179867  0.32669569     0.92800
C770        C  0.05594951  0.18283415  0.32368797     0.92000
C771        C  0.93400869  0.18209270  0.32394669     0.84100
C772        C  0.05132447  0.07217334  0.32795558     0.90400
O773        O  0.03869655  0.87739813  0.36545343    -0.73400
O774        O  0.94912845  0.79421694  0.36566404    -0.74300
O775        O  0.03892728  0.79216238  0.36415070    -0.63000
O776        O  0.95380742  0.87877101  0.36664103    -0.71400
O777        O  0.95686895  0.88162095  0.63299713    -0.70900
O778        O  0.04546364  0.79711082  0.63182557    -0.62200
O779        O  0.95620610  0.79678057  0.63175378    -0.74700
O780        O  0.04256251  0.88155878  0.63321382    -0.73500
Cu781      Cu  0.99529493  0.83507804  0.36814295     1.04600
Cu782      Cu  0.00016938  0.83893481  0.62984122     1.04300
C783        C  0.05626228  0.89385644  0.67226414     0.92800
C784        C  0.93690761  0.78620929  0.66858552     0.92000
C785        C  0.05845219  0.78424800  0.67107133     0.84100
C786        C  0.94302088  0.89549079  0.67141734     0.90400
O787        O  0.81471190  0.02988170  0.36926779    -0.73400
O788        O  0.89735525  0.93883746  0.36658307    -0.74300
O789        O  0.89898298  0.02508792  0.36714358    -0.63000
O790        O  0.81255219  0.94041797  0.36751723    -0.71400
O791        O  0.81561326  0.93617638  0.62755624    -0.70900
O792        O  0.89907875  0.02553831  0.63122954    -0.62200
O793        O  0.90004178  0.94050247  0.63105083    -0.74700
O794        O  0.81380277  0.02603211  0.62872862    -0.73500
Cu795      Cu  0.85562037  0.98340553  0.37037585     1.04600
Cu796      Cu  0.85675013  0.98222175  0.62691763     1.04300
C797        C  0.80209765  0.04283567  0.32992434     0.92800
C798        C  0.91051830  0.92478622  0.32788099     0.92000
C799        C  0.91039749  0.03906514  0.32789259     0.84100
C800        C  0.80215042  0.92131529  0.33039136     0.90400
C801        C  0.85081692  0.72071335  0.95033657     0.86100
C802        C  0.82315249  0.75857966  0.95310223    -0.54200
C803        C  0.82561790  0.77887219  0.65756518     0.09000
C804        C  0.85931366  0.76315955  0.69192500     0.20000
C805        C  0.89341432  0.73642033  0.96198743    -0.54900
C806        C  0.89898075  0.76163978  0.66245582     0.09100
C807        C  0.83909338  0.69565022  0.99517285    -0.54400
C808        C  0.84845969  0.71799241  0.70202420     0.09700
H809        H  0.80189996  0.76658686  0.92551402     0.14200
H810        H  0.86229674  0.78194690  0.72392567    -0.00100
H811        H  0.91933895  0.73208669  0.93901404     0.14500
H812        H  0.84018755  0.66295622  0.66054536     0.14300
O813        O  0.84252172  0.59810567  0.78044836    -0.73400
O814        O  0.82164368  0.68100018  0.88263753    -0.74300
O815        O  0.82113480  0.68110931  0.77159561    -0.63000
O816        O  0.84798984  0.59693408  0.87425815    -0.71400
O817        O  0.91305957  0.61550492  0.87177834    -0.70900
O818        O  0.88598674  0.69928355  0.77243551    -0.62200
O819        O  0.88652260  0.69806322  0.87881604    -0.74700
O820        O  0.90783380  0.61615506  0.77926625    -0.73500
Cu821      Cu  0.83052571  0.63986897  0.82748596     1.04600
Cu822      Cu  0.90006621  0.65900544  0.82552915     1.04300
C823        C  0.87923081  0.59165789  0.76832486     0.92800
C824        C  0.85248247  0.69890298  0.90127339     0.92000
C825        C  0.85142938  0.69909670  0.75133771     0.84100
C826        C  0.88565293  0.59028166  0.88412755     0.90400
C827        C  0.85487744  0.24499469  0.71909044     0.86100
C828        C  0.82452597  0.20963528  0.71433315    -0.54200
C829        C  0.82840387  0.18497982  0.00838879     0.09000
C830        C  0.86438013  0.20177227  0.97739645     0.21600
C831        C  0.89677642  0.22497664  0.71230379    -0.54900
C832        C  0.90140527  0.20501556  0.01144731     0.09100
C833        C  0.84918190  0.27004419  0.67233179    -0.54400
C834        C  0.85312010  0.24668908  0.96562300     0.09700
H835        H  0.80071643  0.20380066  0.73974959     0.14200
H836        H  0.87060984  0.18293249  0.94607782    -0.00100
H837        H  0.92129414  0.22692570  0.73767761     0.14500
H838        H  0.83692014  0.30067968  0.00511749     0.14300
O839        O  0.85316608  0.36955071  0.88800921    -0.73400
O840        O  0.82384382  0.28529927  0.78650017    -0.74300
O841        O  0.82737526  0.28525890  0.89750104    -0.63000
O842        O  0.84459582  0.36888714  0.79417747    -0.71400
O843        O  0.90980260  0.35090056  0.79189524    -0.70900
O844        O  0.89234941  0.26747784  0.89621579    -0.62200
O845        O  0.88846542  0.26778141  0.79081805    -0.74700
O846        O  0.91819815  0.35042688  0.88498680    -0.73500
Cu847      Cu  0.83438062  0.32670280  0.84210459     1.04600
Cu848      Cu  0.90387609  0.30754559  0.84085662     1.04300
C849        C  0.89110794  0.37593865  0.89672475     0.92800
C850        C  0.85485710  0.26727106  0.76797213     0.92000
C851        C  0.85751821  0.26659736  0.91698760     0.84100
C852        C  0.88083003  0.37501937  0.78008721     0.90400
N853        N  0.90119995  0.53972894  0.66228939    -0.37000
N854        N  0.89273776  0.48248899  0.73739274    -0.57600
N855        N  0.90114394  0.42420331  0.66920167    -0.37000
N856        N  0.90193673  0.48432902  0.93180074    -0.57600
C857        C  0.91062503  0.56157433  0.69992447     0.26600
C858        C  0.88961176  0.56503542  0.96189538     0.26600
C859        C  0.90985750  0.40249431  0.70750138     0.26600
C860        C  0.89929799  0.40412579  0.97213396     0.26600
C861        C  0.87519282  0.51636806  0.75420361     0.35200
C862        C  0.87570960  0.45004358  0.75858147     0.35200
C863        C  0.90446191  0.51610502  0.90210189     0.35200
C864        C  0.90740108  0.45028050  0.90655427     0.35200
C865        C  0.93193700  0.59638320  0.68658106    -0.22300
C866        C  0.89967288  0.60165727  0.98188657    -0.22300
C867        C  0.93178285  0.36792155  0.69541753    -0.22300
C868        C  0.91132873  0.36838760  0.99331294    -0.22300
C869        C  0.84652199  0.50565640  0.78772762    -0.23400
C870        C  0.84687232  0.46331596  0.79050239    -0.23400
C871        C  0.91636270  0.50260371  0.85874122    -0.23400
C872        C  0.91785532  0.46041187  0.86143285    -0.23400
C873        C  0.88920439  0.55566172  0.74138092    -0.18700
C874        C  0.89624980  0.55648747  0.91581109    -0.18700
C875        C  0.90313705  0.41082621  0.92508842    -0.18700
C876        C  0.88946816  0.40985475  0.74934559    -0.18700
H877        H  0.94253809  0.62135636  0.70784506     0.14200
H878        H  0.91731437  0.62626556  0.96691011     0.14200
H879        H  0.94187816  0.34322840  0.71744627     0.14200
H880        H  0.93071004  0.34479910  0.97898810     0.14200
H881        H  0.82832276  0.52583914  0.80901419     0.12500
H882        H  0.82887037  0.44489886  0.81398113     0.12500
H883        H  0.92390997  0.52124280  0.82899864     0.12500
H884        H  0.92660918  0.43963119  0.83403208     0.12500
H885        H  0.87886575  0.51711334  0.66192993     0.25700
H886        H  0.87848063  0.44643819  0.66703830     0.25700
C887        C  0.73715610  0.83730319  0.71572858     0.86100
C888        C  0.77244425  0.80702824  0.71054663    -0.54200
C889        C  0.79363766  0.81189855  0.00629120     0.09000
C890        C  0.77939282  0.84586857  0.97169023     0.20000
C891        C  0.75691914  0.87899953  0.71016206    -0.54900
C892        C  0.77932160  0.88576752  0.00123790     0.09100
C893        C  0.71173358  0.83234172  0.66932528    -0.54400
C894        C  0.73368718  0.83617209  0.96162367     0.09700
H895        H  0.77840457  0.78318957  0.73589473     0.14200
H896        H  0.79839414  0.84791802  0.93978102    -0.00100
H897        H  0.75471782  0.90270210  0.73643100     0.14500
H898        H  0.67824963  0.82959192  0.00271462     0.14300
O899        O  0.70807065  0.86940184  0.89153798    -0.73400
O900        O  0.62468311  0.87663074  0.78955400    -0.74300
O901        O  0.62225059  0.87429096  0.88190619    -0.63000
O902        O  0.70888246  0.86868327  0.78634917    -0.71400
O903        O  0.70176855  0.80202872  0.78170308    -0.70900
O904        O  0.61577566  0.80707888  0.88419905    -0.62200
O905        O  0.61557017  0.80981271  0.78744557    -0.74700
O906        O  0.70226445  0.80240479  0.89243096    -0.73500
Cu907      Cu  0.66703918  0.87410981  0.83741240     1.04600
Cu908      Cu  0.65976494  0.80253890  0.83635158     1.04300
C909        C  0.71457980  0.83556141  0.91244099     0.92800
C910        C  0.60528590  0.84575141  0.77472854     0.92000
C911        C  0.60419284  0.84245350  0.89660979     0.84100
C912        C  0.71473747  0.83545847  0.76371500     0.90400
C913        C  0.25907394  0.83389915  0.94609453     0.86100
C914        C  0.22517595  0.80257459  0.95286334    -0.54200
C915        C  0.20130293  0.80600896  0.65759431     0.09000
C916        C  0.21875142  0.83871775  0.69221856     0.20000
C917        C  0.23747164  0.87504532  0.94964832    -0.54900
C918        C  0.22141420  0.87880234  0.66324206     0.09100
C919        C  0.28520270  0.83197820  0.99219003    -0.54400
C920        C  0.26376687  0.82580022  0.70131529     0.09700
H921        H  0.21995402  0.77757873  0.92877768     0.14200
H922        H  0.20052156  0.84194331  0.72458882    -0.00100
H923        H  0.23846167  0.89792683  0.92234790     0.14500
H924        H  0.31760076  0.81509693  0.65836652     0.14300
O925        O  0.28959441  0.86045169  0.77078720    -0.73400
O926        O  0.37236706  0.86931390  0.87426141    -0.74300
O927        O  0.37449529  0.86609314  0.78261532    -0.63000
O928        O  0.28767032  0.86297530  0.87532260    -0.71400
O929        O  0.29485392  0.79641467  0.88252322    -0.70900
O930        O  0.38233296  0.79883232  0.78254613    -0.62200
O931        O  0.38155630  0.80275643  0.87940646    -0.74700
O932        O  0.29616071  0.79356883  0.77158561    -0.73500
Cu933      Cu  0.33004662  0.86646537  0.82565474     1.04600
Cu934      Cu  0.33780193  0.79498422  0.82914902     1.04300
C935        C  0.28361146  0.82617826  0.75048256     0.92800
C936        C  0.39150251  0.83902565  0.89127516     0.92000
C937        C  0.39314031  0.83424506  0.76945521     0.84100
C938        C  0.28160124  0.83044288  0.89881871     0.90400
N939        N  0.55865528  0.87612331  0.00704596    -0.37000
N940        N  0.49778922  0.85219770  0.93866342    -0.57600
N941        N  0.43833264  0.88024585  0.99960781    -0.37000
N942        N  0.49772649  0.85221428  0.73147963    -0.57600
C943        C  0.58133013  0.87370578  0.96842726     0.26600
C944        C  0.57661838  0.88045451  0.70538425     0.26600
C945        C  0.41630666  0.87725250  0.96018761     0.26600
C946        C  0.41457304  0.86351996  0.69682990     0.26600
C947        C  0.53156961  0.83340221  0.92263547     0.35200
C948        C  0.46488818  0.83308086  0.92019009     0.35200
C949        C  0.53185183  0.83628991  0.75047301     0.35200
C950        C  0.46592797  0.83032054  0.74690376     0.35200
C951        C  0.61840074  0.89403383  0.97556205    -0.22300
C952        C  0.61029224  0.90531721  0.69718827    -0.22300
C953        C  0.38258174  0.90314949  0.96297109    -0.22300
C954        C  0.37601122  0.87962434  0.68694612    -0.22300
C955        C  0.52022193  0.80155789  0.89379737    -0.23400
C956        C  0.47786093  0.80129234  0.89233610    -0.23400
C957        C  0.52164362  0.80400503  0.77909433    -0.23400
C958        C  0.47951186  0.80036681  0.77705417    -0.23400
C959        C  0.57163223  0.84829376  0.93062839    -0.18700
C960        C  0.57092436  0.85323755  0.74271499    -0.18700
C961        C  0.42526596  0.84044001  0.73606038    -0.18700
C962        C  0.42439509  0.84792046  0.92553664    -0.18700
H963        H  0.64492432  0.89609498  0.95350584     0.14200
H964        H  0.63594977  0.91182698  0.71960819     0.14200
H965        H  0.35743019  0.90723239  0.93917394     0.14200
H966        H  0.34894902  0.88024072  0.70827476     0.14200
H967        H  0.54028922  0.78025927  0.87661172     0.12500
H968        H  0.45889040  0.77994608  0.87362580     0.12500
H969        H  0.54227791  0.78434162  0.79788258     0.12500
H970        H  0.46119103  0.77745789  0.79407946     0.12500
H971        H  0.53301901  0.85842446  0.01445831     0.25700
H972        H  0.46056509  0.85968077  0.01092909     0.25700
C973        C  0.74143435  0.12759200  0.94719427     0.86100
C974        C  0.77647947  0.15774791  0.95364521    -0.54200
C975        C  0.79658228  0.15701884  0.65993208     0.09000
C976        C  0.78042034  0.12222263  0.69212523     0.20000
C977        C  0.76147669  0.08572371  0.95262257    -0.54900
C978        C  0.77931823  0.08368797  0.66048070     0.09100
C979        C  0.71480139  0.13175835  0.99256457    -0.54400
C980        C  0.73515784  0.13320076  0.70155823     0.09700
H981        H  0.78298101  0.18186353  0.92883555     0.14200
H982        H  0.79869928  0.11812352  0.72439998    -0.00100
H983        H  0.76040923  0.06244574  0.92575747     0.14500
H984        H  0.68102441  0.14447051  0.65916178     0.14300
O985        O  0.70599495  0.16451625  0.88254535    -0.73400
O986        O  0.61802557  0.15890829  0.78307833    -0.74300
O987        O  0.61904929  0.15888517  0.87928740    -0.63000
O988        O  0.70389263  0.16529636  0.77179809    -0.71400
O989        O  0.71019627  0.09835008  0.77139975    -0.70900
O990        O  0.62789273  0.09218061  0.87649650    -0.62200
O991        O  0.62585100  0.09162225  0.78422503    -0.74700
O992        O  0.71338673  0.09792736  0.87628705    -0.73500
Cu993      Cu  0.66274891  0.16474658  0.82910693     1.04600
Cu994      Cu  0.67041835  0.09319786  0.82710793     1.04300
C995        C  0.71938307  0.13070461  0.89938208     0.92800
C996        C  0.60660794  0.12320070  0.77156894     0.92000
C997        C  0.60865688  0.12310192  0.89221286     0.84100
C998        C  0.71595794  0.13256203  0.75079832     0.90400
C999        C  0.26120248  0.12889643  0.71937666     0.86100
C1000       C  0.22300632  0.15558185  0.71601834    -0.54200
C1001       C  0.20349957  0.14937835  0.00969798     0.09000
C1002       C  0.21935323  0.11671032  0.97445039     0.20000
C1003       C  0.24567991  0.08546557  0.71183955    -0.54900
C1004       C  0.22066838  0.07622505  0.00268895     0.09100
C1005       C  0.28525790  0.13819093  0.67271681    -0.54400
C1006       C  0.26465927  0.12840194  0.96571995     0.09700
H1007       H  0.21570155  0.17861478  0.74186338     0.14200
H1008       H  0.20086144  0.11464978  0.94208161    -0.00100
H1009       H  0.25008283  0.06123152  0.73709017     0.14500
H1010       H  0.31901692  0.13695402  0.00848277     0.14300
O1011       O  0.37393425  0.09433946  0.79275865    -0.73400
O1012       O  0.29236305  0.09704047  0.89579881    -0.74300
O1013       O  0.28976261  0.09871873  0.79074908    -0.63000
O1014       O  0.37841052  0.09569168  0.88398362    -0.71400
O1015       O  0.38157680  0.16308210  0.88927462    -0.70900
O1016       O  0.29534650  0.16547142  0.78594349    -0.62200
O1017       O  0.29464251  0.16424472  0.89718880    -0.74700
O1018       O  0.38182788  0.16151284  0.79334143    -0.73500
Cu1019     Cu  0.33259479  0.09457938  0.84095540     1.04600
Cu1020     Cu  0.33723479  0.16642119  0.84140954     1.04300
C1021       C  0.39280126  0.12609649  0.77971465     0.92800
C1022       C  0.28413598  0.13038082  0.91692073     0.92000
C1023       C  0.28335549  0.13165237  0.76777645     0.84100
C1024       C  0.39525003  0.12790796  0.89956453     0.90400
N1025       N  0.44151360  0.10542142  0.66816550    -0.37000
N1026       N  0.50131156  0.11317209  0.93864774    -0.57600
N1027       N  0.55701309  0.10472272  0.66227356    -0.37000
N1028       N  0.49894726  0.11164846  0.73849835    -0.57600
C1029       C  0.41645110  0.09731007  0.97155627     0.26600
C1030       C  0.41860889  0.09932227  0.70605407     0.26600
C1031       C  0.58228831  0.08695684  0.96179372     0.26600
C1032       C  0.57908004  0.09630757  0.70001972     0.26600
C1033       C  0.46828360  0.13476943  0.92527963     0.35200
C1034       C  0.53495024  0.13182433  0.92114123     0.35200
C1035       C  0.46690970  0.13069169  0.75819754     0.35200
C1036       C  0.53277261  0.12963945  0.75478751     0.35200
C1037       C  0.37816640  0.07931648  0.97838849    -0.22300
C1038       C  0.38279288  0.07930165  0.69413991    -0.22300
C1039       C  0.61624346  0.06168945  0.96673605    -0.22300
C1040       C  0.61519754  0.07691715  0.68706990    -0.22300
C1041       C  0.48078120  0.16783533  0.89909022    -0.23400
C1042       C  0.52314908  0.16613647  0.89673548    -0.23400
C1043       C  0.48024811  0.16078869  0.78801371    -0.23400
C1044       C  0.52251232  0.16010919  0.78587637    -0.23400
C1045       C  0.42755156  0.12207328  0.93380667    -0.18700
C1046       C  0.42649857  0.12007534  0.74736700    -0.18700
C1047       C  0.57198336  0.11680701  0.74174795    -0.18700
C1048       C  0.57510738  0.11564689  0.92631615    -0.18700
H1049       H  0.35174169  0.07884551  0.95600940     0.14200
H1050       H  0.35675669  0.07219010  0.71569737     0.14200
H1051       H  0.64253497  0.05810053  0.94456624     0.14200
H1052       H  0.64097255  0.06835225  0.70840851     0.14200
H1053       H  0.46146810  0.19144188  0.88481530     0.12500
H1054       H  0.54292389  0.18832394  0.88061570     0.12500
H1055       H  0.46152401  0.18257263  0.80629344     0.12500
H1056       H  0.54315818  0.18117302  0.80253701     0.12500
H1057       H  0.46535473  0.12672321  0.66585957     0.25700
H1058       H  0.53299518  0.12594432  0.66173247     0.25700
C1059       C  0.14463293  0.71678688  0.71678207     0.86100
C1060       C  0.17523275  0.75175657  0.71016967    -0.54200
C1061       C  0.17328974  0.77499279  0.00705035     0.09000
C1062       C  0.13672536  0.75870830  0.97691362     0.20000
C1063       C  0.10307730  0.73716614  0.71387899    -0.54900
C1064       C  0.10029406  0.75546016  0.01198093     0.09100
C1065       C  0.14754390  0.69184640  0.66964717    -0.54400
C1066       C  0.14774754  0.71393171  0.96439738     0.09700
H1067       H  0.20008672  0.75757887  0.73436057     0.14200
H1068       H  0.13016951  0.77785978  0.94591484    -0.00100
H1069       H  0.08081106  0.73500516  0.74179039     0.14500
H1070       H  0.16475178  0.65949196  0.00277334     0.14300
O1071       O  0.20417756  0.61076307  0.88517393    -0.73400
O1072       O  0.18480404  0.69482023  0.78594482    -0.74300
O1073       O  0.18537618  0.69491002  0.89371275    -0.63000
O1074       O  0.20502224  0.61182551  0.79204829    -0.71400
O1075       O  0.14012117  0.59250575  0.79367346    -0.70900
O1076       O  0.11988825  0.67901419  0.89458432    -0.62200
O1077       O  0.12009276  0.67622637  0.78465692    -0.74700
O1078       O  0.13874499  0.59409500  0.88899669    -0.73500
Cu1079     Cu  0.19663351  0.65462877  0.83930151     1.04600
Cu1080     Cu  0.12694544  0.63609969  0.84040055     1.04300
C1081       C  0.17587237  0.58737992  0.89975571     0.92800
C1082       C  0.15025497  0.69437387  0.76467775     0.92000
C1083       C  0.15074260  0.69620298  0.91460638     0.84100
C1084       C  0.17691116  0.58703084  0.78039347     0.90400
C1085       C  0.15194108  0.24180813  0.95122935     0.86100
C1086       C  0.17802030  0.20309815  0.95572523    -0.54200
C1087       C  0.17026841  0.18247746  0.66205487     0.09000
C1088       C  0.13682391  0.20018748  0.69496496     0.20000
C1089       C  0.10843214  0.22749885  0.95995782    -0.54900
C1090       C  0.09797738  0.20322523  0.66372116     0.09100
C1091       C  0.16280488  0.26709985  0.99606313    -0.54400
C1092       C  0.14980613  0.24478945  0.70437482     0.09700
H1093       H  0.19987412  0.19394109  0.92930401     0.14200
H1094       H  0.13240628  0.18203188  0.72720115    -0.00100
H1095       H  0.08437774  0.23142890  0.93424362     0.14500
H1096       H  0.16366629  0.29803042  0.66198389     0.14300
O1097       O  0.21076259  0.34647765  0.78231239    -0.73400
O1098       O  0.19124464  0.26462823  0.88260903    -0.74300
O1099       O  0.18999454  0.26357057  0.77424240    -0.63000
O1100       O  0.20928315  0.34861864  0.87593522    -0.71400
O1101       O  0.14376321  0.36478479  0.87833246    -0.70900
O1102       O  0.12486187  0.28093354  0.77404929    -0.62200
O1103       O  0.12561063  0.28001868  0.88267800    -0.74700
O1104       O  0.14544583  0.36463613  0.78267535    -0.73500
Cu1105     Cu  0.20218346  0.30422504  0.82880485     1.04600
Cu1106     Cu  0.13226903  0.32201423  0.82932776     1.04300
C1107       C  0.18242800  0.37089644  0.77082031     0.92800
C1108       C  0.15646394  0.26320405  0.90294347     0.92000
C1109       C  0.15503505  0.26331485  0.75355811     0.84100
C1110       C  0.18054561  0.37161779  0.89071936     0.90400
N1111       N  0.19240459  0.53812047  0.66952044    -0.37000
N1112       N  0.19911341  0.48022098  0.74233061    -0.57600
N1113       N  0.21745103  0.41901027  0.99989257    -0.37000
N1114       N  0.19677139  0.47927879  0.93265916    -0.57600
C1115       C  0.20327919  0.56087371  0.70633047     0.26600
C1116       C  0.21313114  0.56199581  0.96763834     0.26600
C1117       C  0.21118416  0.40094456  0.70056251     0.26600
C1118       C  0.21707266  0.39652890  0.96074348     0.26600
C1119       C  0.17944467  0.51186986  0.76223746     0.35200
C1120       C  0.18147448  0.44609244  0.75859159     0.35200
C1121       C  0.17441625  0.51249444  0.92120404     0.35200
C1122       C  0.17613214  0.44594079  0.91759912     0.35200
C1123       C  0.21920619  0.59770437  0.69163240    -0.22300
C1124       C  0.23222031  0.59918047  0.97695656    -0.22300
C1125       C  0.22989891  0.36547025  0.68515602    -0.22300
C1126       C  0.23798155  0.36015592  0.96847900    -0.22300
C1127       C  0.14921316  0.49800358  0.79146259    -0.23400
C1128       C  0.15056425  0.45597701  0.78931586    -0.23400
C1129       C  0.13881166  0.50026447  0.89939558    -0.23400
C1130       C  0.13985403  0.45803614  0.89718169    -0.23400
C1131       C  0.18778257  0.55253715  0.75033530    -0.18700
C1132       C  0.18755123  0.55309823  0.92987178    -0.18700
C1133       C  0.19102125  0.40543651  0.92317671    -0.18700
C1134       C  0.19340204  0.40686829  0.74409857    -0.18700
H1135       H  0.22840046  0.62353033  0.71249710     0.14200
H1136       H  0.23568254  0.62565135  0.95509454     0.14200
H1137       H  0.24161387  0.34050781  0.70574651     0.14200
H1138       H  0.24173824  0.33418631  0.94588883     0.14200
H1139       H  0.12636877  0.51612822  0.80880585     0.12500
H1140       H  0.12919170  0.43541673  0.80546522     0.12500
H1141       H  0.11393164  0.51947733  0.88799697     0.12500
H1142       H  0.11581265  0.43863394  0.88405542     0.12500
H1143       H  0.19466118  0.51366409  0.01123188     0.25700
H1144       H  0.19815549  0.44345253  0.00685658     0.25700
O1145       O  0.10498832  0.02426298  0.70881374    -0.73400
O1146       O  0.18667168  0.93098463  0.70889656    -0.74300
O1147       O  0.19073710  0.02136614  0.70660973    -0.63000
O1148       O  0.10178511  0.93819047  0.71107569    -0.71400
O1149       O  0.09659384  0.93694011  0.96391642    -0.70900
O1150       O  0.18023450  0.02757208  0.95858128    -0.62200
O1151       O  0.18128246  0.93831100  0.95830803    -0.74700
O1152       O  0.09588621  0.02375693  0.96423508    -0.73500
Cu1153     Cu  0.14658926  0.97886825  0.71160971     1.04600
Cu1154     Cu  0.13854455  0.98156156  0.95846859     1.04300
C1155       C  0.09010061  0.03741352  0.67038647     0.92800
C1156       C  0.19232854  0.91911844  0.99503209     0.92000
C1157       C  0.19432975  0.03952320  0.99773501     0.84100
C1158       C  0.08470268  0.92256297  0.00306415     0.90400
O1159       O  0.95871501  0.08273125  0.70837014    -0.73400
O1160       O  0.04776101  0.16659047  0.70805230    -0.74300
O1161       O  0.95843135  0.16765892  0.70653374    -0.63000
O1162       O  0.04485751  0.08185369  0.70940886    -0.71400
O1163       O  0.04478756  0.08759242  0.96756650    -0.70900
O1164       O  0.95425552  0.17028418  0.96844176    -0.62200
O1165       O  0.04413236  0.17320642  0.96857052    -0.74700
O1166       O  0.96000663  0.08556405  0.96734945    -0.73500
Cu1167     Cu  0.00233991  0.12509724  0.71084807     1.04600
Cu1168     Cu  0.00093686  0.12975665  0.96540012     1.04300
C1169       C  0.94516188  0.06866780  0.66985924     0.92800
C1170       C  0.06047816  0.17862465  0.66841267     0.92000
C1171       C  0.93968998  0.17760477  0.66893190     0.84100
C1172       C  0.05856126  0.06886883  0.67064231     0.90400
O1173       O  0.04232869  0.87970848  0.71061540    -0.73400
O1174       O  0.94981130  0.79752461  0.70859611    -0.74300
O1175       O  0.03991462  0.79411724  0.70873625    -0.63000
O1176       O  0.95599083  0.88227029  0.71044406    -0.71400
O1177       O  0.95746175  0.87464511  0.96758572    -0.70900
O1178       O  0.04691608  0.79020974  0.96931393    -0.62200
O1179       O  0.95674152  0.78963073  0.97076126    -0.74700
O1180       O  0.04221744  0.87501003  0.96579759    -0.73500
Cu1181     Cu  0.99711223  0.83797228  0.71243404     1.04600
Cu1182     Cu  0.00070152  0.83165650  0.96578997     1.04300
C1183       C  0.05550304  0.88919109  0.00414176     0.92800
C1184       C  0.93690154  0.78087584  0.00791109     0.92000
C1185       C  0.06084737  0.77850626  0.00872980     0.84100
C1186       C  0.94512584  0.89052639  0.00568312     0.90400
O1187       O  0.81477972  0.03219415  0.70560042    -0.73400
O1188       O  0.89667853  0.94022584  0.70841448    -0.74300
O1189       O  0.89947577  0.02546148  0.70873244    -0.63000
O1190       O  0.81157591  0.94237507  0.70430827    -0.71400
O1191       O  0.82053802  0.93483358  0.95884098    -0.70900
O1192       O  0.90475862  0.02477488  0.96608751    -0.62200
O1193       O  0.90523911  0.93816784  0.96469750    -0.74700
O1194       O  0.81950987  0.02412321  0.96095229    -0.73500
Cu1195     Cu  0.85505868  0.98498511  0.70950850     1.04600
Cu1196     Cu  0.86245007  0.98062949  0.95992775     1.04300
C1197       C  0.80343802  0.04531892  0.66575355     0.92800
C1198       C  0.91181523  0.92687051  0.67036635     0.92000
C1199       C  0.91314728  0.03843232  0.67002016     0.84100
C1200       C  0.80275612  0.92313841  0.66670670     0.90400
loop_ 
_geom_bond_atom_site_label_1 
_geom_bond_atom_site_label_2 
_geom_bond_distance 
_geom_bond_site_symmetry_2 
_ccdc_geom_bond_type 
C1            C2   1.528       .  S
C1            C7   1.578       .  S
C1            C5   1.529       .  S
C1           C24   1.558       .  S
C2            H9   1.086       .  S
C2          C403   1.366       .  D
C3            C4   1.569   1_556  S
C3          C802   1.376       .  D
C3          C889   1.514   1_556  S
C4            C8   1.555       .  S
C4            C6   1.567       .  S
C4           H10   1.110       .  S
C5           H11   1.086       .  S
C5          C406   1.357       .  D
C6          C805   1.352   1_554  D
C6         C1184   1.502       .  S
C7          H412   1.084       .  S
C7          C408   1.395       .  D
C8          C807   1.400   1_554  D
C8           C25   1.543       .  S
H12         C807   1.083       .  S
O13         Cu21   2.011       .  S
O13          C23   1.275       .  A
O14         Cu21   2.092       .  S
O14          C24   1.288       .  A
O15         Cu21   2.128       .  S
O15          C25   1.294       .  A
O16         Cu21   2.042       .  S
O16          C26   1.279       .  A
O17         Cu22   1.945       .  S
O17          C26   1.271       .  A
O18         Cu22   2.060       .  S
O18          C25   1.281       .  A
O19         Cu22   2.015       .  S
O19          C24   1.281       .  A
O20         Cu22   1.922       .  S
O20          C23   1.271       .  A
Cu21        Cu22   2.363       .  S
C23          C73   1.456       .  S
C26          C74   1.477       .  S
C27          C28   1.527       .  S
C27          C33   1.575       .  S
C27          C31   1.534       .  S
C27          C50   1.554       .  S
C28          H35   1.087       .  S
C28         C829   1.363       .  D
C29          C30   1.558       .  S
C29         C428   1.380       .  D
C29         C575   1.505       .  S
C30          C34   1.550       .  S
C30          C32   1.558       .  S
C30          H36   1.111       .  S
C31          H37   1.086       .  S
C31         C832   1.360       .  D
C32         C431   1.351       .  D
C32         C771   1.495       .  S
C33         H838   1.085       .  S
C33         C834   1.392   1_554  D
C34         C433   1.402       .  D
C34          C51   1.541       .  S
H38         C433   1.082       .  S
O39         Cu47   2.012       .  S
O39          C49   1.275       .  A
O40         Cu47   2.093       .  S
O40          C50   1.289       .  A
O41         Cu47   2.129       .  S
O41          C51   1.294       .  A
O42         Cu47   2.047       .  S
O42          C52   1.280       .  A
O43         Cu48   1.943       .  S
O43          C52   1.271       .  A
O44         Cu48   2.054       .  S
O44          C51   1.280       .  A
O45         Cu48   2.012       .  S
O45          C50   1.279       .  A
O46         Cu48   1.926       .  S
O46          C49   1.271       .  A
Cu47        Cu48   2.363       .  S
C49          C75   1.458       .  S
C52          C76   1.477       .  S
N53          H85   1.042       .  S
N53          C57   1.338   1_556  A
N53         C858   1.346       .  A
N54          C61   1.346       .  A
N54          C62   1.352       .  A
N55          H86   1.041       .  S
N55          C59   1.344   1_556  A
N55         C860   1.339       .  A
N56          C63   1.352       .  A
N56          C64   1.347       .  A
C57          C65   1.400       .  A
C57          C73   1.409       .  A
C58         N453   1.345       .  A
C58          C74   1.412       .  A
C58          C66   1.397       .  A
C59          C67   1.397       .  A
C59          C76   1.411       .  A
C60         N455   1.339       .  A
C60          C75   1.410       .  A
C60          C68   1.398       .  A
C61          C73   1.415       .  A
C61          C69   1.384       .  A
C62          C76   1.419       .  A
C62          C70   1.382       .  A
C63          C71   1.383       .  A
C63          C74   1.419       .  A
C64          C72   1.384       .  A
C64          C75   1.413       .  A
C65         C866   1.353   1_554  A
C65          H77   1.075       .  S
C66         C465   1.358       .  A
C66          H78   1.078       .  S
C67         C868   1.359   1_554  A
C67          H79   1.078       .  S
C68         C467   1.349       .  A
C68          H80   1.071       .  S
C69          C70   1.388       .  A
C69          H81   1.080       .  S
C70          H82   1.079       .  S
C71          C72   1.386       .  A
C71          H83   1.079       .  S
C72          H84   1.080       .  S
C87          C88   1.546       .  S
C87          C93   1.576       .  S
C87          C91   1.523       .  S
C87         C112   1.581       .  S
C88          H95   1.086       .  S
C88         C889   1.379       .  D
C89          C90   1.569       .  S
C89         C488   1.372       .  D
C89         C403   1.505       .  S
C90          C94   1.553       .  S
C90          C92   1.552       .  S
C90          H96   1.111       .  S
C91          H97   1.086       .  S
C91         C892   1.350       .  D
C92         C491   1.348       .  D
C92         C800   1.485       .  S
C93         H898   1.085       .  S
C93         C894   1.399   1_554  D
C94         C493   1.401       .  D
C94         C109   1.546       .  S
H98         C493   1.085       .  S
O99        Cu107   2.069       .  S
O99         C109   1.283       .  A
O100       Cu107   2.007       .  S
O100        C110   1.274       .  A
O101       Cu107   1.958       .  S
O101        C111   1.274       .  A
O102       Cu107   2.047       .  S
O102        C112   1.289       .  A
O103       Cu108   2.104       .  S
O103        C112   1.285       .  A
O104       Cu108   1.969       .  S
O104        C111   1.272       .  A
O105       Cu108   2.035       .  S
O105        C110   1.284       .  A
O106       Cu108   2.116       .  S
O106        C109   1.293       .  A
Cu107      Cu108   2.362       .  S
C110        C160   1.482       .  S
C111        C159   1.454       .  S
C113        C114   1.548       .  S
C113        C119   1.580       .  S
C113        C117   1.531       .  S
C113        C138   1.591       .  S
C114        H121   1.086       .  S
C114        C515   1.380       .  D
C115        C116   1.576   1_556  S
C115        C914   1.364       .  D
C115       C1061   1.501   1_556  S
C116        C120   1.553       .  S
C116        C118   1.550   1_554  S
C116        H122   1.110       .  S
C117        H123   1.085       .  S
C117        C518   1.350       .  D
C118        C917   1.355       .  D
C118       C1156   1.477       .  S
C119        H524   1.085       .  S
C119        C520   1.400       .  D
C120        C919   1.394   1_554  D
C120        C135   1.543       .  S
H124        C919   1.086       .  S
O125       Cu133   2.104       .  S
O125        C135   1.290       .  A
O126       Cu133   2.024       .  S
O126        C136   1.283       .  A
O127       Cu133   1.974       .  S
O127        C137   1.270       .  A
O128       Cu133   2.027       .  S
O128        C138   1.284       .  A
O129       Cu134   2.130       .  S
O129        C138   1.290       .  A
O130       Cu134   2.039       .  S
O130        C137   1.286       .  A
O131       Cu134   1.972       .  S
O131        C136   1.270       .  A
O132       Cu134   2.088       .  S
O132        C135   1.285       .  A
Cu133      Cu134   2.360       .  S
C136        C162   1.475       .  S
C137        C161   1.473       .  S
N139        H171   1.042       .  S
N139        C143   1.335       .  A
N139        C544   1.342       .  A
N140        C147   1.343       .  A
N140        C148   1.349       .  A
N141        H172   1.043       .  S
N141        C145   1.342       .  A
N141        C546   1.331       .  A
N142        C149   1.351       .  A
N142        C150   1.346       .  A
C143        C151   1.389       .  A
C143        C159   1.396       .  A
C144        N939   1.343       .  A
C144        C160   1.374       .  A
C144        C152   1.375       .  A
C145        C153   1.383       .  A
C145        C162   1.392       .  A
C146        N941   1.339   1_554  A
C146        C161   1.378       .  A
C146        C154   1.378       .  A
C147        C159   1.416       .  A
C147        C155   1.391       .  A
C148        C162   1.418       .  A
C148        C156   1.388       .  A
C149        C157   1.379       .  A
C149        C160   1.415       .  A
C150        C158   1.381       .  A
C150        C161   1.412       .  A
C151        C552   1.374       .  A
C151        H163   1.080       .  S
C152        C951   1.359   1_554  A
C152        H164   1.083       .  S
C153        C554   1.374       .  A
C153        H165   1.081       .  S
C154        C953   1.367   1_554  A
C154        H166   1.083       .  S
C155        C156   1.390       .  A
C155        H167   1.081       .  S
C156        H168   1.081       .  S
C157        C158   1.392       .  A
C157        H169   1.080       .  S
C158        H170   1.081       .  S
C173        C174   1.541       .  S
C173        C179   1.579       .  S
C173        C177   1.532       .  S
C173        C195   1.585       .  S
C174        H181   1.086       .  S
C174        C575   1.379       .  D
C175        C176   1.577   1_556  S
C175        C974   1.365       .  D
C175        C829   1.502   1_556  S
C176        C180   1.560       .  S
C176        C178   1.554   1_554  S
C176        H182   1.110       .  S
C177        H183   1.085       .  S
C177        C578   1.346       .  D
C178        C977   1.356       .  D
C178        C397   1.486       .  S
C179        H584   1.085       .  S
C179        C580   1.402       .  D
C180        C979   1.393   1_554  D
C180        C198   1.550       .  S
H184        C979   1.086       .  S
O185       Cu193   2.131       .  S
O185        C195   1.291       .  A
O186       Cu193   2.039       .  S
O186        C196   1.287       .  A
O187       Cu193   1.981       .  S
O187        C197   1.271       .  A
O188       Cu193   2.109       .  S
O188        C198   1.289       .  A
O189       Cu194   2.103       .  S
O189        C198   1.289       .  A
O190       Cu194   2.030       .  S
O190        C197   1.283       .  A
O191       Cu194   1.951       .  S
O191        C196   1.266       .  A
O192       Cu194   1.995       .  S
O192        C195   1.280       .  A
Cu193      Cu194   2.360       .  S
C196        C247   1.466       .  S
C197        C248   1.476       .  S
C199        C200   1.539       .  S
C199        C205   1.576       .  S
C199        C203   1.522       .  S
C199        C223   1.569       .  S
C200        H207   1.086       .  S
C200       C1001   1.373       .  D
C201        C202   1.571       .  S
C201        C600   1.367       .  D
C201        C687   1.498       .  S
C202        C206   1.555       .  S
C202        C204   1.552       .  S
C202        H208   1.111       .  S
C203        H209   1.086       .  S
C203       C1004   1.350       .  D
C204        C603   1.354       .  D
C204        C357   1.484       .  S
C205       H1010   1.084       .  S
C205       C1006   1.399   1_554  D
C206        C605   1.396       .  D
C206        C222   1.546       .  S
H210        C605   1.085       .  S
O211       Cu219   2.017       .  S
O211        C221   1.276       .  A
O212       Cu219   2.080       .  S
O212        C222   1.285       .  A
O213       Cu219   2.033       .  S
O213        C223   1.288       .  A
O214       Cu219   1.948       .  S
O214        C224   1.273       .  A
O215       Cu220   1.959       .  S
O215        C224   1.271       .  A
O216       Cu220   2.085       .  S
O216        C223   1.283       .  A
O217       Cu220   2.115       .  S
O217        C222   1.292       .  A
O218       Cu220   2.035       .  S
O218        C221   1.284       .  A
Cu219      Cu220   2.364       .  S
C221        C246   1.486       .  S
C224        C245   1.448       .  S
N225        H257   1.038       .  S
N225        C230   1.347       .  A
N225       C1029   1.336   1_554  A
N226        C233   1.341       .  A
N226        C234   1.349       .  A
N227        H258   1.039       .  S
N227        C232   1.336       .  A
N227       C1031   1.346   1_554  A
N228        C235   1.352       .  A
N228        C236   1.344       .  A
C229        N625   1.333       .  A
C229        C237   1.389       .  A
C229        C245   1.390       .  A
C230        C246   1.376       .  A
C230        C238   1.374       .  A
C231        N627   1.346       .  A
C231        C239   1.380       .  A
C231        C248   1.390       .  A
C232        C247   1.376       .  A
C232        C240   1.380       .  A
C233        C245   1.414       .  A
C233        C241   1.392       .  A
C234        C248   1.413       .  A
C234        C242   1.386       .  A
C235        C243   1.378       .  A
C235        C246   1.416       .  A
C236        C244   1.381       .  A
C236        C247   1.411       .  A
C237        C638   1.371       .  A
C237        H249   1.081       .  S
C238       C1037   1.356   1_554  A
C238        H250   1.083       .  S
C239        C640   1.371       .  A
C239        H251   1.081       .  S
C240       C1039   1.366   1_554  A
C240        H252   1.083       .  S
C241        C242   1.389       .  A
C241        H253   1.080       .  S
C242        H254   1.081       .  S
C243        C244   1.391       .  A
C243        H255   1.080       .  S
C244        H256   1.081       .  S
C259        C260   1.533       .  S
C259        C265   1.573       .  S
C259        C263   1.533       .  S
C259        C282   1.560       .  S
C260        H267   1.086       .  S
C260       C1061   1.361       .  D
C261        C262   1.570       .  S
C261        C660   1.371       .  D
C261        C515   1.518       .  S
C262        C266   1.560       .  S
C262        C264   1.573       .  S
C262        H268   1.110       .  S
C263        H269   1.086       .  S
C263       C1064   1.368       .  D
C264        C663   1.363       .  D
C264        C385   1.498       .  S
C265       H1070   1.085       .  S
C265       C1066   1.392   1_554  D
C266        C665   1.395       .  D
C266        C283   1.548       .  S
H270        C665   1.086       .  S
O271       Cu279   1.986       .  S
O271        C281   1.278       .  A
O272       Cu279   2.078       .  S
O272        C282   1.289       .  A
O273       Cu279   2.081       .  S
O273        C283   1.284       .  A
O274       Cu279   2.012       .  S
O274        C284   1.276       .  A
O275       Cu280   2.050       .  S
O275        C284   1.285       .  A
O276       Cu280   2.119       .  S
O276        C283   1.293       .  A
O277       Cu280   2.057       .  S
O277        C282   1.282       .  A
O278       Cu280   1.945       .  S
O278        C281   1.268       .  A
Cu279      Cu280   2.365       .  S
C281        C332   1.453       .  S
C284        C331   1.491       .  S
C285        C286   1.535       .  S
C285        C291   1.582       .  S
C285        C289   1.527       .  S
C285        C308   1.568       .  S
C286        H293   1.086       .  S
C286        C687   1.359       .  D
C287        C288   1.562   1_556  S
C287       C1086   1.368       .  D
C287       C1001   1.503   1_556  S
C288        C292   1.556       .  S
C288        C290   1.570       .  S
C288        H294   1.110       .  S
C289        H295   1.086       .  S
C289        C690   1.368       .  D
C290       C1089   1.364   1_554  D
C290        C370   1.499       .  S
C291        H696   1.085       .  S
C291        C692   1.398       .  D
C292       C1091   1.392   1_554  D
C292        C309   1.541       .  S
H296       C1091   1.085       .  S
O297       Cu305   1.987       .  S
O297        C307   1.272       .  A
O298       Cu305   2.049       .  S
O298        C308   1.283       .  A
O299       Cu305   2.115       .  S
O299        C309   1.292       .  A
O300       Cu305   2.020       .  S
O300        C310   1.282       .  A
O301       Cu306   1.955       .  S
O301        C310   1.268       .  A
O302       Cu306   2.072       .  S
O302        C309   1.282       .  A
O303       Cu306   2.090       .  S
O303        C308   1.290       .  A
O304       Cu306   2.031       .  S
O304        C307   1.284       .  A
Cu305      Cu306   2.365       .  S
C307        C334   1.476       .  S
C310        C333   1.468       .  S
N311       H1143   1.042       .  S
N311        C315   1.340       .  A
N311       C1116   1.337   1_554  A
N312        C319   1.354       .  A
N312        C320   1.348       .  A
N313        H344   1.042       .  S
N313        C318   1.344       .  A
N313        C717   1.332       .  A
N314        C321   1.343       .  A
N314        C322   1.346       .  A
C315        C323   1.378       .  A
C315        C331   1.380       .  A
C316        N711   1.336       .  A
C316        C332   1.387       .  A
C316        C324   1.385       .  A
C317       N1113   1.339   1_554  A
C317        C325   1.381       .  A
C317        C334   1.385       .  A
C318        C333   1.389       .  A
C318        C326   1.381       .  A
C319        C331   1.420       .  A
C319        C327   1.377       .  A
C320        C334   1.417       .  A
C320        C328   1.379       .  A
C321        C329   1.390       .  A
C321        C332   1.412       .  A
C322        C330   1.388       .  A
C322        C333   1.412       .  A
C323       C1124   1.365   1_554  A
C323        H335   1.082       .  S
C324        C723   1.372       .  A
C324        H336   1.081       .  S
C325       C1126   1.368   1_554  A
C325        H337   1.082       .  S
C326        C725   1.370       .  A
C326        H338   1.081       .  S
C327        C328   1.391       .  A
C327        H339   1.080       .  S
C328        H340   1.081       .  S
C329        C330   1.385       .  A
C329        H341   1.080       .  S
C330        H342   1.081       .  S
H343        N711   1.043       .  S
O345       Cu353   2.003   1_545  S
O345        C355   1.278       .  A
O346       Cu353   2.016       .  S
O346       C1156   1.275   1_554  A
O347       Cu353   1.989   1_545  S
O347       C1157   1.282   1_554  A
O348       Cu353   1.974       .  S
O348       C1158   1.272       .  A
O349       Cu354   1.998       .  S
O349        C358   1.277       .  A
O350       Cu354   2.025   1_545  S
O350        C357   1.276       .  A
O351       Cu354   2.000       .  S
O351        C356   1.282       .  A
O352       Cu354   1.977   1_545  S
O352        C755   1.272       .  A
Cu353     Cu1154   2.374   1_554  S
Cu354      Cu753   2.373       .  S
C355       O1152   1.274   1_554  A
C355        C372   1.452       .  S
C356        C518   1.497       .  S
C356        O746   1.278       .  A
C357        O747   1.281       .  A
C358        O748   1.272       .  A
C358        C383   1.446       .  S
O359       Cu367   2.019   1_655  S
O359        C369   1.280       .  A
O360       Cu367   2.053       .  S
O360        C370   1.280       .  A
O361       Cu367   2.026   1_655  S
O361        C371   1.283       .  A
O362       Cu367   1.986       .  S
O362        C372   1.274       .  A
O363       Cu368   2.017   1_455  S
O363        C772   1.281       .  A
O364       Cu368   2.046       .  S
O364        C771   1.277       .  A
O365       Cu368   2.024   1_455  S
O365        C770   1.282       .  A
O366       Cu368   1.982       .  S
O366        C769   1.274       .  A
Cu367     Cu1168   2.371   1_554  S
Cu368      Cu767   2.372       .  S
C369       O1166   1.273   1_554  A
C369        C399   1.459       .  S
C370       O1165   1.282   1_554  A
C371        C832   1.494       .  S
C371       O1164   1.277   1_554  A
C372       O1163   1.277   1_554  A
O373       Cu381   2.017   1_455  S
O373       C1183   1.281       .  A
O374       Cu381   2.057       .  S
O374       C1184   1.279       .  A
O375       Cu381   2.037   1_455  S
O375       C1185   1.284       .  A
O376       Cu381   1.987       .  S
O376       C1186   1.274       .  A
O377       Cu382   2.008       .  S
O377        C386   1.279       .  A
O378       Cu382   2.047   1_455  S
O378        C385   1.278       .  A
O379       Cu382   2.013       .  S
O379        C384   1.282       .  A
O380       Cu382   1.975   1_455  S
O380        C383   1.273       .  A
Cu381     Cu1182   2.370   1_654  S
Cu382      Cu781   2.373       .  S
C383        O773   1.277       .  A
C384        C406   1.488       .  S
C384        O774   1.276       .  A
C385        O775   1.283       .  A
C386        O776   1.273       .  A
C386        C798   1.453       .  S
O387       Cu395   2.030   1_545  S
O387        C397   1.277   1_554  A
O388       Cu395   2.008       .  S
O388        C398   1.278       .  A
O389       Cu395   1.987   1_545  S
O389        C399   1.274       .  A
O390       Cu395   2.001       .  S
O390        C400   1.283   1_554  A
O391       Cu396   2.027       .  S
O391        C800   1.275       .  A
O392       Cu396   2.000   1_545  S
O392        C799   1.277       .  A
O393       Cu396   1.976       .  S
O393        C798   1.273       .  A
O394       Cu396   2.000   1_545  S
O394        C797   1.283       .  A
Cu395     Cu1196   2.373   1_554  S
Cu396      Cu795   2.374       .  S
C397       O1194   1.281       .  A
C398       O1193   1.274   1_554  A
C398       C1186   1.455       .  S
C399       O1192   1.280   1_554  A
C400        C892   1.492   1_556  S
C400       O1191   1.276       .  A
C401        C402   1.541       .  S
C401        C407   1.584       .  S
C401        C405   1.534       .  S
C401        C424   1.587       .  S
C402        H409   1.086       .  S
C402        C803   1.375       .  D
C403        C404   1.573       .  S
C404        C408   1.553       .  S
C404        C406   1.558       .  S
C404        H410   1.110       .  S
C405        H411   1.085       .  S
C405        C806   1.353       .  D
C407        H812   1.085       .  S
C407        C808   1.403       .  D
C408        C425   1.545       .  S
O413       Cu421   2.020       .  S
O413        C423   1.283       .  A
O414       Cu421   2.125       .  S
O414        C424   1.291       .  A
O415       Cu421   2.101       .  S
O415        C425   1.288       .  A
O416       Cu421   1.981       .  S
O416        C426   1.272       .  A
O417       Cu422   2.005       .  S
O417        C426   1.280       .  A
O418       Cu422   2.094       .  S
O418        C425   1.288       .  A
O419       Cu422   2.029       .  S
O419        C424   1.284       .  A
O420       Cu422   1.970       .  S
O420        C423   1.269       .  A
Cu421      Cu422   2.362       .  S
C423        C473   1.464       .  S
C426        C474   1.469       .  S
C427        C428   1.544       .  S
C427        C433   1.577       .  S
C427        C431   1.526       .  S
C427        C450   1.588       .  S
C428        H435   1.086       .  S
C429        C430   1.561       .  S
C429        C828   1.373       .  D
C429        C975   1.497       .  S
C430        C434   1.550       .  S
C430        C432   1.554       .  S
C430        H436   1.111       .  S
C431        H437   1.085       .  S
C432        C831   1.350       .  D
C432       C1171   1.493       .  S
C434        C833   1.403       .  D
C434        C451   1.547       .  S
H438        C833   1.085       .  S
O439       Cu447   1.967       .  S
O439        C449   1.272       .  A
O440       Cu447   2.109       .  S
O440        C450   1.286       .  A
O441       Cu447   2.111       .  S
O441        C451   1.292       .  A
O442       Cu447   2.016       .  S
O442        C452   1.282       .  A
O443       Cu448   2.005       .  S
O443        C452   1.274       .  A
O444       Cu448   2.074       .  S
O444        C451   1.285       .  A
O445       Cu448   2.050       .  S
O445        C450   1.290       .  A
O446       Cu448   1.953       .  S
O446        C449   1.273       .  A
Cu447      Cu448   2.364       .  S
C449        C475   1.448       .  S
C452        C476   1.475       .  S
N453        H485   1.041       .  S
N453        C457   1.341       .  A
N454        C461   1.346       .  A
N454        C462   1.350       .  A
N455        H486   1.042       .  S
N455        C459   1.347       .  A
N456        C463   1.348       .  A
N456        C464   1.341       .  A
C457        C465   1.377       .  A
C457        C473   1.376       .  A
C458        N853   1.341       .  A
C458        C474   1.390       .  A
C458        C466   1.384       .  A
C459        C467   1.372       .  A
C459        C476   1.371       .  A
C460        N855   1.333       .  A
C460        C475   1.392       .  A
C460        C468   1.390       .  A
C461        C473   1.409       .  A
C461        C469   1.381       .  A
C462        C476   1.409       .  A
C462        C470   1.379       .  A
C463        C471   1.386       .  A
C463        C474   1.414       .  A
C464        C472   1.390       .  A
C464        C475   1.414       .  A
C465        H477   1.083       .  S
C466        C865   1.371       .  A
C466        H478   1.081       .  S
C467        H479   1.083       .  S
C468        C867   1.373       .  A
C468        H480   1.080       .  S
C469        C470   1.388       .  A
C469        H481   1.081       .  S
C470        H482   1.081       .  S
C471        C472   1.390       .  A
C471        H483   1.081       .  S
C472        H484   1.081       .  S
C487        C488   1.537       .  S
C487        C493   1.582       .  S
C487        C491   1.530       .  S
C487        C512   1.575       .  S
C488        H495   1.086       .  S
C489        C490   1.572       .  S
C489        C888   1.369       .  D
C489        C803   1.508       .  S
C490        C494   1.553       .  S
C490        C492   1.561       .  S
C490        H496   1.110       .  S
C491        H497   1.085       .  S
C492        C891   1.352       .  D
C492       C1200   1.489       .  S
C494        C893   1.398       .  D
C494        C509   1.541       .  S
H498        C893   1.085       .  S
O499       Cu507   2.075       .  S
O499        C509   1.285       .  A
O500       Cu507   2.007       .  S
O500        C510   1.279       .  A
O501       Cu507   1.953       .  S
O501        C511   1.269       .  A
O502       Cu507   2.012       .  S
O502        C512   1.283       .  A
O503       Cu508   2.110       .  S
O503        C512   1.288       .  A
O504       Cu508   2.000       .  S
O504        C511   1.279       .  A
O505       Cu508   2.015       .  S
O505        C510   1.276       .  A
O506       Cu508   2.105       .  S
O506        C509   1.290       .  A
Cu507      Cu508   2.361       .  S
C510        C560   1.485       .  S
C511        C559   1.460       .  S
C513        C514   1.537       .  S
C513        C519   1.585       .  S
C513        C517   1.531       .  S
C513        C538   1.584       .  S
C514        H521   1.086       .  S
C514        C915   1.372       .  D
C515        C516   1.569       .  S
C516        C520   1.555       .  S
C516        C518   1.557       .  S
C516        H522   1.110       .  S
C517        H523   1.085       .  S
C517        C918   1.351       .  D
C519        H924   1.085       .  S
C519        C920   1.404       .  D
C520        C535   1.545       .  S
O525       Cu533   2.059       .  S
O525        C535   1.281       .  A
O526       Cu533   1.980       .  S
O526        C536   1.273       .  A
O527       Cu533   1.945       .  S
O527        C537   1.272       .  A
O528       Cu533   2.023       .  S
O528        C538   1.285       .  A
O529       Cu534   2.120       .  S
O529        C538   1.289       .  A
O530       Cu534   2.000       .  S
O530        C537   1.275       .  A
O531       Cu534   2.018       .  S
O531        C536   1.280       .  A
O532       Cu534   2.125       .  S
O532        C535   1.294       .  A
Cu533      Cu534   2.361       .  S
C536        C562   1.470       .  S
C537        C561   1.460       .  S
N539        H571   1.039       .  S
N539        C944   1.342       .  A
N539        C543   1.336       .  A
N540        C547   1.348       .  A
N540        C548   1.354       .  A
N541        H572   1.037       .  S
N541        C946   1.333       .  A
N541        C545   1.343       .  A
N542        C549   1.352       .  A
N542        C550   1.348       .  A
C543        C551   1.385       .  A
C543        C559   1.387       .  A
C544        C560   1.401       .  A
C544        C552   1.388       .  A
C545        C553   1.380       .  A
C545        C562   1.378       .  A
C546        C561   1.398       .  A
C546        C554   1.394       .  A
C547        C559   1.411       .  A
C547        C555   1.380       .  A
C548        C562   1.403       .  A
C548        C556   1.370       .  A
C549        C557   1.386       .  A
C549        C560   1.418       .  A
C550        C558   1.385       .  A
C550        C561   1.415       .  A
C551        C952   1.373       .  A
C551        H563   1.082       .  S
C552        H564   1.079       .  S
C553        C954   1.361       .  A
C553        H565   1.082       .  S
C554        H566   1.079       .  S
C555        C556   1.379       .  A
C555        H567   1.077       .  S
C556        H568   1.077       .  S
C557        C558   1.391       .  A
C557        H569   1.082       .  S
C558        H570   1.082       .  S
C573        C574   1.533       .  S
C573        C579   1.584       .  S
C573        C577   1.533       .  S
C573        C595   1.578       .  S
C574        H581   1.086       .  S
C574        C975   1.372       .  D
C575        C576   1.559       .  S
C576        C580   1.546       .  S
C576        C578   1.554       .  S
C576        H582   1.111       .  S
C577        H583   1.086       .  S
C577        C978   1.354       .  D
C578        C797   1.490       .  S
C579        H984   1.085       .  S
C579        C980   1.402       .  D
C580        C598   1.535       .  S
O585       Cu593   2.123       .  S
O585        C595   1.292       .  A
O586       Cu593   2.010       .  S
O586        C596   1.277       .  A
O587       Cu593   1.999       .  S
O587        C597   1.275       .  A
O588       Cu593   2.106       .  S
O588        C598   1.291       .  A
O589       Cu594   2.056       .  S
O589        C598   1.282       .  A
O590       Cu594   1.969       .  S
O590        C597   1.275       .  A
O591       Cu594   1.921       .  S
O591        C596   1.268       .  A
O592       Cu594   2.007       .  S
O592        C595   1.281       .  A
Cu593      Cu594   2.363       .  S
C596        C647   1.454       .  S
C597        C648   1.463       .  S
C599        C600   1.530       .  S
C599        C605   1.578       .  S
C599        C603   1.531       .  S
C599        C623   1.561       .  S
C600        H607   1.086       .  S
C601        C602   1.564       .  S
C601       C1000   1.367       .  D
C601       C1087   1.496       .  S
C602        C606   1.552       .  S
C602        C604   1.560       .  S
C602        H608   1.111       .  S
C603        H609   1.086       .  S
C604       C1003   1.353       .  D
C604        C757   1.494       .  S
C606       C1005   1.402       .  D
C606        C622   1.548       .  S
H610       C1005   1.085       .  S
O611       Cu619   1.971       .  S
O611        C621   1.274       .  A
O612       Cu619   2.056       .  S
O612        C622   1.281       .  A
O613       Cu619   2.005       .  S
O613        C623   1.281       .  A
O614       Cu619   1.926       .  S
O614        C624   1.269       .  A
O615       Cu620   1.973       .  S
O615        C624   1.273       .  A
O616       Cu620   2.096       .  S
O616        C623   1.287       .  A
O617       Cu620   2.138       .  S
O617        C622   1.296       .  A
O618       Cu620   2.042       .  S
O618        C621   1.280       .  A
Cu619      Cu620   2.363       .  S
C621        C646   1.485       .  S
C624        C645   1.440       .  S
N625        H657   1.038       .  S
N625        C630   1.340       .  A
N626        C633   1.342       .  A
N626        C634   1.348       .  A
N627        H658   1.038       .  S
N627        C632   1.331       .  A
N628        C635   1.355       .  A
N628        C636   1.346       .  A
C629       N1025   1.331       .  A
C629        C637   1.393       .  A
C629        C645   1.389       .  A
C630        C646   1.402       .  A
C630        C638   1.391       .  A
C631       N1027   1.339       .  A
C631        C639   1.385       .  A
C631        C648   1.388       .  A
C632        C647   1.404       .  A
C632        C640   1.399       .  A
C633        C645   1.406       .  A
C633        C641   1.382       .  A
C634        C648   1.407       .  A
C634        C642   1.379       .  A
C635        C643   1.381       .  A
C635        C646   1.421       .  A
C636        C644   1.384       .  A
C636        C647   1.418       .  A
C637       C1038   1.366       .  A
C637        H649   1.080       .  S
C638        H650   1.079       .  S
C639       C1040   1.365       .  A
C639        H651   1.080       .  S
C640        H652   1.079       .  S
C641        C642   1.388       .  A
C641        H653   1.080       .  S
C642        H654   1.080       .  S
C643        C644   1.394       .  A
C643        H655   1.081       .  S
C644        H656   1.081       .  S
C659        C660   1.541       .  S
C659        C665   1.575       .  S
C659        C663   1.518       .  S
C659        C682   1.571       .  S
C660        H667   1.086       .  S
C661        C662   1.567       .  S
C661       C1060   1.365       .  D
C661        C915   1.507       .  S
C662        C666   1.554       .  S
C662        C664   1.566       .  S
C662        H668   1.110       .  S
C663        H669   1.087       .  S
C664       C1063   1.362       .  D
C664        C785   1.486       .  S
C666       C1065   1.401       .  D
C666        C683   1.556       .  S
H670       C1065   1.084       .  S
O671       Cu679   1.956       .  S
O671        C681   1.273       .  A
O672       Cu679   2.061       .  S
O672        C682   1.284       .  A
O673       Cu679   2.086       .  S
O673        C683   1.286       .  A
O674       Cu679   1.974       .  S
O674        C684   1.274       .  A
O675       Cu680   2.029       .  S
O675        C684   1.279       .  A
O676       Cu680   2.125       .  S
O676        C683   1.294       .  A
O677       Cu680   2.086       .  S
O677        C682   1.291       .  A
O678       Cu680   1.988       .  S
O678        C681   1.273       .  A
Cu679      Cu680   2.362       .  S
C681        C732   1.459       .  S
C684        C731   1.480       .  S
C685        C686   1.536       .  S
C685        C691   1.581       .  S
C685        C689   1.515       .  S
C685        C708   1.561       .  S
C686        H693   1.086       .  S
C686       C1087   1.366       .  D
C687        C688   1.564       .  S
C688        C692   1.551       .  S
C688        C690   1.566       .  S
C688        H694   1.110       .  S
C689        H695   1.087       .  S
C689       C1090   1.359       .  D
C690        C770   1.491       .  S
C691       H1096   1.085       .  S
C691       C1092   1.399       .  D
C692        C709   1.553       .  S
O697       Cu705   1.929       .  S
O697        C707   1.269       .  A
O698       Cu705   2.039       .  S
O698        C708   1.281       .  A
O699       Cu705   2.096       .  S
O699        C709   1.288       .  A
O700       Cu705   1.989       .  S
O700        C710   1.277       .  A
O701       Cu706   2.017       .  S
O701        C710   1.277       .  A
O702       Cu706   2.109       .  S
O702        C709   1.291       .  A
O703       Cu706   2.076       .  S
O703        C708   1.291       .  A
O704       Cu706   1.991       .  S
O704        C707   1.274       .  A
Cu705      Cu706   2.363       .  S
C707        C734   1.455       .  S
C710        C733   1.481       .  S
N711        C715   1.339       .  A
N712        C719   1.353       .  A
N712        C720   1.346       .  A
N713        H744   1.040       .  S
N713        C718   1.342       .  A
N713       C1117   1.336       .  A
N714        C721   1.347       .  A
N714        C722   1.352       .  A
C715        C723   1.391       .  A
C715        C731   1.402       .  A
C716       N1111   1.335       .  A
C716        C732   1.399       .  A
C716        C724   1.394       .  A
C717        C725   1.398       .  A
C717        C734   1.405       .  A
C718        C733   1.401       .  A
C718        C726   1.389       .  A
C719        C731   1.420       .  A
C719        C727   1.381       .  A
C720        C734   1.418       .  A
C720        C728   1.385       .  A
C721        C729   1.383       .  A
C721        C732   1.416       .  A
C722        C730   1.382       .  A
C722        C733   1.419       .  A
C723        H735   1.079       .  S
C724       C1123   1.368       .  A
C724        H736   1.079       .  S
C725        H737   1.078       .  S
C726       C1125   1.372       .  A
C726        H738   1.079       .  S
C727        C728   1.391       .  A
C727        H739   1.080       .  S
C728        H740   1.080       .  S
C729        C730   1.390       .  A
C729        H741   1.080       .  S
C730        H742   1.080       .  S
H743       N1111   1.040       .  S
O745       Cu753   2.021   1_545  S
O745        C755   1.281       .  A
O746       Cu753   2.048       .  S
O747       Cu753   1.998   1_545  S
O748       Cu753   1.967       .  S
O749       Cu754   2.005       .  S
O749        C758   1.279       .  A
O750       Cu754   2.035   1_545  S
O750        C757   1.277       .  A
O751       Cu754   2.007       .  S
O751        C756   1.283       .  A
O752       Cu754   1.980   1_545  S
O752       C1155   1.273       .  A
Cu754     Cu1153   2.370       .  S
C755        C772   1.458       .  S
C756        C918   1.498       .  S
C756       O1146   1.278       .  A
C757       O1147   1.284       .  A
C758       O1148   1.273       .  A
C758        C783   1.456       .  S
O759       Cu767   1.996       .  S
O759        C769   1.277       .  A
O760       Cu767   2.027   1_455  S
O760        C770   1.277       .  A
O761       Cu767   1.997       .  S
O761        C771   1.282       .  A
O762       Cu767   1.977   1_455  S
O762        C772   1.272       .  A
O763       Cu768   2.016   1_455  S
O763       C1172   1.280       .  A
O764       Cu768   2.036       .  S
O764       C1171   1.277       .  A
O765       Cu768   1.989   1_455  S
O765       C1170   1.280       .  A
O766       Cu768   1.963       .  S
O766       C1169   1.272       .  A
Cu768     Cu1167   2.374   1_655  S
C769        C799   1.451       .  S
O773       Cu781   1.990   1_455  S
O774       Cu781   2.023       .  S
O775       Cu781   2.010   1_455  S
O776       Cu781   1.976       .  S
O777       Cu782   1.996   1_655  S
O777        C786   1.277       .  A
O778       Cu782   2.022       .  S
O778        C785   1.276       .  A
O779       Cu782   1.999   1_655  S
O779        C784   1.281       .  A
O780       Cu782   1.974       .  S
O780        C783   1.273       .  A
Cu782     Cu1181   2.373   1_455  S
C783       O1173   1.280       .  A
C784        C806   1.492       .  S
C784       O1174   1.278       .  A
C785       O1175   1.282       .  A
C786       O1176   1.274       .  A
C786       C1198   1.451       .  S
O787       Cu795   2.031   1_545  S
O787        C797   1.275       .  A
O788       Cu795   2.005       .  S
O788        C798   1.278       .  A
O789       Cu795   1.975   1_545  S
O789        C799   1.273       .  A
O790       Cu795   1.998       .  S
O790        C800   1.282       .  A
O791       Cu796   2.026       .  S
O791       C1200   1.275       .  A
O792       Cu796   1.990   1_545  S
O792       C1199   1.277       .  A
O793       Cu796   1.975       .  S
O793       C1198   1.273       .  A
O794       Cu796   2.012   1_545  S
O794       C1197   1.283       .  A
Cu796     Cu1195   2.373       .  S
C801        C802   1.540       .  S
C801        C807   1.576       .  S
C801        C805   1.524       .  S
C801        C824   1.581       .  S
C802        H809   1.086       .  S
C803        C804   1.566       .  S
C804        C808   1.553       .  S
C804        C806   1.553       .  S
C804        H810   1.111       .  S
C805        H811   1.085       .  S
C808        C825   1.549       .  S
O813       Cu821   1.964       .  S
O813        C823   1.270       .  A
O814       Cu821   2.101       .  S
O814        C824   1.285       .  A
O815       Cu821   2.122       .  S
O815        C825   1.294       .  A
O816       Cu821   2.029       .  S
O816        C826   1.284       .  A
O817       Cu822   1.996       .  S
O817        C826   1.272       .  A
O818       Cu822   2.069       .  S
O818        C825   1.283       .  A
O819       Cu822   2.045       .  S
O819        C824   1.289       .  A
O820       Cu822   1.951       .  S
O820        C823   1.274       .  A
Cu821      Cu822   2.364       .  S
C823        C873   1.450       .  S
C826        C874   1.476       .  S
C827        C828   1.535       .  S
C827        C833   1.585       .  S
C827        C831   1.534       .  S
C827        C850   1.582       .  S
C828        H835   1.086       .  S
C829        C830   1.578   1_554  S
C830        C834   1.557       .  S
C830        C832   1.560   1_556  S
C830        H836   1.110       .  S
C831        H837   1.085       .  S
C834        C851   1.549       .  S
O839       Cu847   2.023       .  S
O839        C849   1.285       .  A
O840       Cu847   2.124       .  S
O840        C850   1.291       .  A
O841       Cu847   2.106       .  S
O841        C851   1.289       .  A
O842       Cu847   1.981       .  S
O842        C852   1.271       .  A
O843       Cu848   2.010       .  S
O843        C852   1.281       .  A
O844       Cu848   2.098       .  S
O844        C851   1.289       .  A
O845       Cu848   2.005       .  S
O845        C850   1.281       .  A
O846       Cu848   1.951       .  S
O846        C849   1.266       .  A
Cu847      Cu848   2.362       .  S
C849        C875   1.459       .  S
C852        C876   1.473       .  S
N853        H885   1.043       .  S
N853        C857   1.333       .  A
N854        C861   1.342       .  A
N854        C862   1.348       .  A
N855        H886   1.043       .  S
N855        C859   1.341       .  A
N856        C863   1.350       .  A
N856        C864   1.344       .  A
C857        C865   1.394       .  A
C857        C873   1.396       .  A
C858        C874   1.370       .  A
C858        C866   1.372       .  A
C859        C867   1.387       .  A
C859        C876   1.396       .  A
C860        C875   1.374       .  A
C860        C868   1.379       .  A
C861        C873   1.418       .  A
C861        C869   1.391       .  A
C862        C876   1.419       .  A
C862        C870   1.387       .  A
C863        C871   1.378       .  A
C863        C874   1.409       .  A
C864        C872   1.381       .  A
C864        C875   1.408       .  A
C865        H877   1.079       .  S
C866        H878   1.083       .  S
C867        H879   1.080       .  S
C868        H880   1.083       .  S
C869        C870   1.392       .  A
C869        H881   1.081       .  S
C870        H882   1.081       .  S
C871        C872   1.388       .  A
C871        H883   1.080       .  S
C872        H884   1.080       .  S
C887        C888   1.532       .  S
C887        C893   1.578       .  S
C887        C891   1.523       .  S
C887        C912   1.563       .  S
C888        H895   1.086       .  S
C889        C890   1.564   1_554  S
C890        C894   1.557       .  S
C890        C892   1.560   1_556  S
C890        H896   1.110       .  S
C891        H897   1.086       .  S
C894        C909   1.544       .  S
O899       Cu907   2.059       .  S
O899        C909   1.281       .  A
O900       Cu907   1.953       .  S
O900        C910   1.270       .  A
O901       Cu907   1.947       .  S
O901        C911   1.274       .  A
O902       Cu907   2.016       .  S
O902        C912   1.284       .  A
O903       Cu908   2.089       .  S
O903        C912   1.286       .  A
O904       Cu908   1.998       .  S
O904        C911   1.273       .  A
O905       Cu908   2.029       .  S
O905        C910   1.280       .  A
O906       Cu908   2.127       .  S
O906        C909   1.295       .  A
Cu907      Cu908   2.362       .  S
C910        C960   1.473       .  S
C911        C959   1.460       .  S
C913        C914   1.526       .  S
C913        C919   1.576       .  S
C913        C917   1.528       .  S
C913        C938   1.550       .  S
C914        H921   1.086       .  S
C915        C916   1.570       .  S
C916        C920   1.556       .  S
C916        C918   1.560       .  S
C916        H922   1.110       .  S
C917        H923   1.086       .  S
C920        C935   1.553       .  S
O925       Cu933   2.066       .  S
O925        C935   1.282       .  A
O926       Cu933   1.968       .  S
O926        C936   1.272       .  A
O927       Cu933   1.911       .  S
O927        C937   1.269       .  A
O928       Cu933   1.995       .  S
O928        C938   1.279       .  A
O929       Cu934   2.082       .  S
O929        C938   1.287       .  A
O930       Cu934   1.985       .  S
O930        C937   1.273       .  A
O931       Cu934   2.048       .  S
O931        C936   1.281       .  A
O932       Cu934   2.142       .  S
O932        C935   1.297       .  A
Cu933      Cu934   2.363       .  S
C936        C962   1.487       .  S
C937        C961   1.439       .  S
N939        H971   1.044       .  S
N939        C943   1.338   1_554  A
N940        C947   1.348       .  A
N940        C948   1.355       .  A
N941        H972   1.044   1_556  S
N941        C945   1.345       .  A
N942        C949   1.348       .  A
N942        C950   1.342       .  A
C943        C951   1.401       .  A
C943        C959   1.405       .  A
C944        C960   1.408       .  A
C944        C952   1.393       .  A
C945        C953   1.396       .  A
C945        C962   1.410       .  A
C946        C961   1.401       .  A
C946        C954   1.398       .  A
C947        C959   1.419       .  A
C947        C955   1.384       .  A
C948        C962   1.422       .  A
C948        C956   1.382       .  A
C949        C957   1.383       .  A
C949        C960   1.414       .  A
C950        C958   1.383       .  A
C950        C961   1.407       .  A
C951        H963   1.078       .  S
C952        H964   1.079       .  S
C953        H965   1.078       .  S
C954        H966   1.078       .  S
C955        C956   1.388       .  A
C955        H967   1.079       .  S
C956        H968   1.079       .  S
C957        C958   1.387       .  A
C957        H969   1.079       .  S
C958        H970   1.080       .  S
C973        C974   1.527       .  S
C973        C979   1.575       .  S
C973        C977   1.531       .  S
C973        C995   1.553       .  S
C974        H981   1.086       .  S
C975        C976   1.563       .  S
C976        C980   1.550       .  S
C976        C978   1.558       .  S
C976        H982   1.111       .  S
C977        H983   1.086       .  S
C978       C1197   1.494       .  S
C980        C998   1.548       .  S
O985       Cu993   2.086       .  S
O985        C995   1.287       .  A
O986       Cu993   1.981       .  S
O986        C996   1.274       .  A
O987       Cu993   2.042       .  S
O987        C997   1.279       .  A
O988       Cu993   2.129       .  S
O988        C998   1.294       .  A
O989       Cu994   2.072       .  S
O989        C998   1.284       .  A
O990       Cu994   1.990       .  S
O990        C997   1.277       .  A
O991       Cu994   1.909       .  S
O991        C996   1.266       .  A
O992       Cu994   1.998       .  S
O992        C995   1.279       .  A
Cu993      Cu994   2.363       .  S
C996       C1047   1.435       .  S
C997       C1048   1.493       .  S
C999       C1000   1.530       .  S
C999       C1005   1.585       .  S
C999       C1003   1.529       .  S
C999       C1023   1.569       .  S
C1000      H1007   1.086       .  S
C1001      C1002   1.564   1_554  S
C1002      C1006   1.554       .  S
C1002      C1004   1.558   1_556  S
C1002      H1008   1.110       .  S
C1003      H1009   1.086       .  S
C1004      C1157   1.489   1_554  S
C1006      C1022   1.542       .  S
O1011     Cu1019   1.938       .  S
O1011      C1021   1.269       .  A
O1012     Cu1019   2.056       .  S
O1012      C1022   1.280       .  A
O1013     Cu1019   2.014       .  S
O1013      C1023   1.284       .  A
O1014     Cu1019   1.943       .  S
O1014      C1024   1.274       .  A
O1015     Cu1020   2.001       .  S
O1015      C1024   1.273       .  A
O1016     Cu1020   2.100       .  S
O1016      C1023   1.288       .  A
O1017     Cu1020   2.127       .  S
O1017      C1022   1.295       .  A
O1018     Cu1020   2.018       .  S
O1018      C1021   1.278       .  A
Cu1019    Cu1020   2.364       .  S
C1021      C1046   1.457       .  S
C1024      C1045   1.456       .  S
N1025      H1057   1.051       .  S
N1025      C1030   1.338       .  A
N1026      C1033   1.349       .  A
N1026      C1034   1.358       .  A
N1027      H1058   1.051       .  S
N1027      C1032   1.331       .  A
N1028      C1035   1.347       .  A
N1028      C1036   1.339       .  A
C1029      C1037   1.401       .  A
C1029      C1045   1.403       .  A
C1030      C1046   1.392       .  A
C1030      C1038   1.387       .  A
C1031      C1039   1.394       .  A
C1031      C1048   1.407       .  A
C1032      C1047   1.394       .  A
C1032      C1040   1.394       .  A
C1033      C1045   1.420       .  A
C1033      C1041   1.383       .  A
C1034      C1048   1.426       .  A
C1034      C1042   1.382       .  A
C1035      C1043   1.378       .  A
C1035      C1046   1.403       .  A
C1036      C1044   1.382       .  A
C1036      C1047   1.403       .  A
C1037      H1049   1.077       .  S
C1038      H1050   1.080       .  S
C1039      H1051   1.078       .  S
C1040      H1052   1.080       .  S
C1041      C1042   1.391       .  A
C1041      H1053   1.081       .  S
C1042      H1054   1.080       .  S
C1043      C1044   1.386       .  A
C1043      H1055   1.079       .  S
C1044      H1056   1.079       .  S
C1059      C1060   1.536       .  S
C1059      C1065   1.584       .  S
C1059      C1063   1.519       .  S
C1059      C1082   1.570       .  S
C1060      H1067   1.086       .  S
C1061      C1062   1.570   1_554  S
C1062      C1066   1.556       .  S
C1062      C1064   1.566   1_556  S
C1062      H1068   1.110       .  S
C1063      H1069   1.087       .  S
C1064      C1185   1.500       .  S
C1066      C1083   1.546       .  S
O1071     Cu1079   1.967       .  S
O1071      C1081   1.275       .  A
O1072     Cu1079   2.058       .  S
O1072      C1082   1.285       .  A
O1073     Cu1079   2.080       .  S
O1073      C1083   1.285       .  A
O1074     Cu1079   1.973       .  S
O1074      C1084   1.274       .  A
O1075     Cu1080   2.009       .  S
O1075      C1084   1.277       .  A
O1076     Cu1080   2.111       .  S
O1076      C1083   1.292       .  A
O1077     Cu1080   2.085       .  S
O1077      C1082   1.289       .  A
O1078     Cu1080   1.999       .  S
O1078      C1081   1.274       .  A
Cu1079    Cu1080   2.363       .  S
C1081      C1132   1.470       .  S
C1084      C1131   1.468       .  S
C1085      C1086   1.536       .  S
C1085      C1091   1.572       .  S
C1085      C1089   1.522       .  S
C1085      C1108   1.561       .  S
C1086      H1093   1.086       .  S
C1087      C1088   1.560       .  S
C1088      C1092   1.549       .  S
C1088      C1090   1.559       .  S
C1088      H1094   1.111       .  S
C1089      H1095   1.087       .  S
C1090      C1170   1.477       .  S
C1092      C1109   1.547       .  S
O1097     Cu1105   1.946       .  S
O1097      C1107   1.270       .  A
O1098     Cu1105   2.051       .  S
O1098      C1108   1.282       .  A
O1099     Cu1105   2.096       .  S
O1099      C1109   1.289       .  A
O1100     Cu1105   2.002       .  S
O1100      C1110   1.280       .  A
O1101     Cu1106   2.022       .  S
O1101      C1110   1.276       .  A
O1102     Cu1106   2.096       .  S
O1102      C1109   1.288       .  A
O1103     Cu1106   2.073       .  S
O1103      C1108   1.289       .  A
O1104     Cu1106   1.985       .  S
O1104      C1107   1.276       .  A
Cu1105    Cu1106   2.363       .  S
C1107      C1134   1.454       .  S
C1110      C1133   1.489       .  S
N1111      C1115   1.342       .  A
N1112      C1119   1.350       .  A
N1112      C1120   1.345       .  A
N1113      H1144   1.041   1_556  S
N1113      C1118   1.344       .  A
N1114      C1121   1.354       .  A
N1114      C1122   1.357       .  A
C1115      C1123   1.383       .  A
C1115      C1131   1.390       .  A
C1116      C1132   1.400       .  A
C1116      C1124   1.397       .  A
C1117      C1125   1.389       .  A
C1117      C1134   1.393       .  A
C1118      C1133   1.405       .  A
C1118      C1126   1.394       .  A
C1119      C1131   1.405       .  A
C1119      C1127   1.377       .  A
C1120      C1134   1.409       .  A
C1120      C1128   1.382       .  A
C1121      C1129   1.383       .  A
C1121      C1132   1.423       .  A
C1122      C1130   1.382       .  A
C1122      C1133   1.425       .  A
C1123      H1135   1.081       .  S
C1124      H1136   1.078       .  S
C1125      H1137   1.081       .  S
C1126      H1138   1.078       .  S
C1127      C1128   1.382       .  A
C1127      H1139   1.078       .  S
C1128      H1140   1.078       .  S
C1129      C1130   1.388       .  A
C1129      H1141   1.081       .  S
C1130      H1142   1.080       .  S
O1145     Cu1153   2.021   1_545  S
O1145      C1155   1.280       .  A
O1146     Cu1153   2.050       .  S
O1147     Cu1153   2.015   1_545  S
O1148     Cu1153   1.985       .  S
O1149     Cu1154   2.015       .  S
O1149      C1158   1.280   1_556  A
O1150     Cu1154   2.037   1_545  S
O1150      C1157   1.276       .  A
O1151     Cu1154   1.994       .  S
O1151      C1156   1.280       .  A
O1152     Cu1154   1.975   1_545  S
C1155      C1172   1.461       .  S
C1158      C1183   1.455       .  S
O1159     Cu1167   1.996   1_655  S
O1159      C1169   1.277       .  A
O1160     Cu1167   2.019       .  S
O1160      C1170   1.275       .  A
O1161     Cu1167   2.009   1_655  S
O1161      C1171   1.283       .  A
O1162     Cu1167   1.989       .  S
O1162      C1172   1.274       .  A
O1163     Cu1168   1.996       .  S
O1164     Cu1168   2.029   1_655  S
O1165     Cu1168   2.012       .  S
O1166     Cu1168   1.977   1_655  S
C1169      C1199   1.444       .  S
O1173     Cu1181   2.019   1_455  S
O1174     Cu1181   2.044       .  S
O1175     Cu1181   2.012   1_455  S
O1176     Cu1181   1.983       .  S
O1177     Cu1182   2.000   1_655  S
O1177      C1186   1.278   1_556  A
O1178     Cu1182   2.038       .  S
O1178      C1185   1.279   1_556  A
O1179     Cu1182   2.000   1_655  S
O1179      C1184   1.283   1_556  A
O1180     Cu1182   1.969       .  S
O1180      C1183   1.271   1_556  A
O1187     Cu1195   2.038   1_545  S
O1187      C1197   1.277       .  A
O1188     Cu1195   2.005       .  S
O1188      C1198   1.278       .  A
O1189     Cu1195   1.971   1_545  S
O1189      C1199   1.272       .  A
O1190     Cu1195   2.002       .  S
O1190      C1200   1.283       .  A
O1191     Cu1196   2.037       .  S
O1192     Cu1196   2.013   1_545  S
O1193     Cu1196   1.981       .  S
O1194     Cu1196   2.004   1_545  S
