geometry optimzed in LAMMPS
_audit_creation_date              2020-12-01 
_audit_creation_method            'lammps2cif' 
_symmetry_space_group_name_H-M    'P1' 
_symmetry_Int_Tables_number       1 
_symmetry_cell_setting            triclinic 
loop_ 
_symmetry_equiv_pos_as_xyz 
  x,y,z 
_cell_length_a                    30.22561793 
_cell_length_b                    31.87370257424212 
_cell_length_c                    35.764177516907885 
_cell_angle_alpha                 89.99939005873624 
_cell_angle_beta                  90.0009466156515 
_cell_angle_gamma                 89.99776536465326 
loop_ 
_atom_site_label 
_atom_site_type_symbol 
_atom_site_fract_x 
_atom_site_fract_y 
_atom_site_fract_z 
_atom_site_charge 
Zn1        Zn  0.45601356  0.48291883  0.28385382     1.49700
Zn2        Zn  0.48029332  0.04382160  0.21646401     1.49400
Zn3        Zn  0.04913266  0.01635013  0.28124402     1.49100
Zn4        Zn  0.01974602  0.45575292  0.21538737     1.49500
O5          O  0.00119485  0.99984605  0.24954362    -1.83100
O6          O  0.41050800  0.52344038  0.27432120    -0.73800
O7          O  0.51421291  0.09894808  0.23203617    -0.73600
O8          O  0.03877750  0.01322289  0.33671861    -0.73100
O9          O  0.41275752  0.02850572  0.21355072    -0.73800
O10         O  0.47100992  0.48677388  0.33779405    -0.73400
O11         O  0.07099400  0.07282802  0.26506914    -0.74000
O12         O  0.08730838  0.47048805  0.20871818    -0.73400
O13         O  0.49843992  0.03455118  0.16297240    -0.74100
O14         O  0.09152242  0.97385504  0.26925541    -0.73500
O15         O  0.99845459  0.46512983  0.16274697    -0.74000
O16         O  0.98602736  0.40116573  0.23272628    -0.73900
O17         O  0.43365408  0.42585961  0.27129366    -0.73700
C18         C  0.39398288  0.01455683  0.24294831     0.78100
C19         C  0.05274737  0.10278844  0.24734852     0.78600
C20         C  0.50528220  0.49988298  0.35453477     0.77600
C21         C  0.10668821  0.48429789  0.23781400     0.78000
C22         C  0.99823609  0.99991252  0.14538536     0.79100
C23         C  0.44979461  0.39645161  0.25156479     0.78100
Zn24       Zn  0.20057740  0.48364159  0.28118655     1.49700
Zn25       Zn  0.29365461  0.01712824  0.28379565     1.49400
Zn26       Zn  0.26943827  0.45620268  0.21641499     1.49100
Zn27       Zn  0.22990383  0.04426615  0.21532549     1.49500
O28         O  0.24849238  0.50017668  0.24947562    -1.83100
O29         O  0.21094226  0.48673522  0.33666115    -0.73800
O30         O  0.33917717  0.97661580  0.27430080    -0.73600
O31         O  0.23553427  0.40106213  0.23199099    -0.73100
O32         O  0.27866031  0.01329316  0.33773535    -0.73800
O33         O  0.17872573  0.42717067  0.26499538    -0.73400
O34         O  0.33697089  0.47155027  0.21353048    -0.74000
O35         O  0.25115174  0.03487386  0.16267387    -0.73400
O36         O  0.31600841  0.07418019  0.27122496    -0.74100
O37         O  0.25131971  0.46545040  0.16291362    -0.73500
O38         O  0.26364166  0.09886290  0.23264433    -0.74000
O39         O  0.16233339  0.02952209  0.20869912    -0.73900
O40         O  0.15817516  0.52613760  0.26923782    -0.73700
C41         C  0.24441435  0.50012740  0.35447725     0.78100
C42         C  0.35572471  0.48550001  0.24293744     0.78600
C43         C  0.19699281  0.39721208  0.24728937     0.77600
C44         C  0.25144986  0.50008605  0.14532071     0.78000
C45         C  0.29987175  0.10358299  0.25148802     0.79100
C46         C  0.14298057  0.01570342  0.23780469     0.78100
Zn47       Zn  0.16633744  0.27360807  0.28418880     1.51300
Zn48       Zn  0.10262202  0.29500705  0.21843309     1.49400
Zn49       Zn  0.14712442  0.20496875  0.21844880     1.49100
Zn50       Zn  0.08341520  0.22640945  0.28419865     1.49500
O51         O  0.12487474  0.24999956  0.24948391    -1.83100
O52         O  0.19155362  0.32735355  0.26644389    -0.73800
O53         O  0.11612881  0.28383237  0.16316646    -0.73600
O54         O  0.21389727  0.21754385  0.22317597    -0.73100
O55         O  0.13565472  0.35156364  0.23203564    -0.73800
O56         O  0.21373128  0.23392340  0.28310032    -0.73400
O57         O  0.13361957  0.21611919  0.16317279    -0.74000
O58         O  0.05821123  0.17264801  0.26648978    -0.73400
O59         O  0.03585115  0.28241560  0.22316039    -0.74100
O60         O  0.11409221  0.14841965  0.23207400    -0.73500
O61         O  0.03598589  0.26605558  0.28309148    -0.74000
O62         O  0.10432288  0.22131395  0.33720446    -0.73900
O63         O  0.14543559  0.27874201  0.33719470    -0.73700
C64         C  0.17373372  0.35647762  0.24770822     0.78100
C65         C  0.12487384  0.24997416  0.14561433     0.78600
C66         C  0.23132469  0.23641652  0.25118354     0.77600
C67         C  0.07602010  0.14351542  0.24775914     0.78000
C68         C  0.01839974  0.26356687  0.25117069     0.79100
C69         C  0.12488115  0.25003038  0.35456865     0.78100
Zn70       Zn  0.33457314  0.22624184  0.21427292     1.49700
Zn71       Zn  0.41510460  0.27381882  0.21430000     1.49400
Zn72       Zn  0.35322728  0.29535290  0.28077251     1.49100
Zn73       Zn  0.39643686  0.20467262  0.28075647     1.49500
O74         O  0.37483162  0.25001820  0.25004516    -1.83100
O75         O  0.35747575  0.21966738  0.16240769    -0.73800
O76         O  0.44128751  0.32740614  0.22999292    -0.73600
O77         O  0.28644570  0.28378301  0.27425950    -0.73100
O78         O  0.39223441  0.28044880  0.16242885    -0.73800
O79         O  0.28761342  0.26648091  0.21441628    -0.73400
O80         O  0.38821403  0.35111406  0.26756214    -0.74000
O81         O  0.38419869  0.21629075  0.33643007    -0.73400
O82         O  0.46206399  0.23358002  0.21440837    -0.74100
O83         O  0.36546996  0.28370393  0.33643870    -0.73500
O84         O  0.46322194  0.21625713  0.27424731    -0.74000
O85         O  0.36143891  0.14892263  0.26751746    -0.73900
O86         O  0.30839423  0.17263154  0.22991687    -0.73700
C87         C  0.37486637  0.25005998  0.14504872     0.78100
C88         C  0.42510920  0.35628384  0.24997292     0.78600
C89         C  0.26950367  0.26452638  0.24619171     0.77600
C90         C  0.37483694  0.24999484  0.35405000     0.78000
C91         C  0.48018214  0.23550391  0.24618151     0.79100
C92         C  0.32455829  0.14375216  0.24990434     0.78100
Zn93       Zn  0.04911681  0.48360525  0.46850776     1.49700
Zn94       Zn  0.01980069  0.04424237  0.03436437     1.49400
Zn95       Zn  0.45605543  0.01711702  0.46589744     1.49100
Zn96       Zn  0.48026059  0.45617291  0.03327997     1.49500
O97         O  0.50120724  0.00014916  0.00022069    -1.83100
O98         O  0.09150449  0.52611645  0.48044335    -0.73800
O99         O  0.98606867  0.09884239  0.01705238    -0.73600
O100        O  0.47105368  0.01329538  0.41196012    -0.73100
O101        O  0.08736953  0.02950872  0.04098300    -0.73800
O102        O  0.03874793  0.48667898  0.41303192    -0.73400
O103        O  0.43369245  0.07416697  0.47848051    -0.74000
O104        O  0.41272615  0.47149776  0.03614208    -0.73400
O105        O  0.99856331  0.03485793  0.08701737    -0.74100
O106        O  0.41054402  0.97659235  0.47537224    -0.73500
O107        O  0.49835237  0.46543404  0.08678767    -0.74000
O108        O  0.51417467  0.40103562  0.01771875    -0.73900
O109        O  0.07098183  0.42714539  0.48471562    -0.73700
C110        C  0.10671233  0.01568806  0.01187375     0.78100
C111        C  0.44983363  0.10356683  0.99821699     0.78600
C112        C  0.50528636  0.00009992  0.39521695     0.77600
C113        C  0.39398357  0.48545985  0.00673410     0.78000
C114        C  0.49824182  0.00007324  0.10437511     0.79100
C115        C  0.05271899  0.39718879  0.00242581     0.78100
Zn116      Zn  0.26942912  0.04380139  0.03322389     1.49700
Zn117      Zn  0.22993780  0.45573951  0.03430863     1.49400
Zn118      Zn  0.20057487  0.01637291  0.46845456     1.49100
Zn119      Zn  0.29366557  0.48289162  0.46583817     1.49500
O120        O  0.24849862  0.99983486  0.50015463    -1.83100
O121        O  0.25128835  0.03455128  0.08671765    -0.73800
O122        O  0.16237220  0.47045645  0.04095610    -0.73600
O123        O  0.17872161  0.07284187  0.48465981    -0.73100
O124        O  0.25120026  0.46512936  0.08695603    -0.73800
O125        O  0.23554419  0.09894305  0.01765091    -0.73400
O126        O  0.15819028  0.97386748  0.48041807    -0.74000
O127        O  0.27866826  0.48674712  0.41189970    -0.73400
O128        O  0.26367537  0.40115285  0.01699166    -0.74100
O129        O  0.21093683  0.01328264  0.41297718    -0.73500
O130        O  0.31602976  0.42583718  0.47840385    -0.74000
O131        O  0.33918959  0.52339502  0.47535440    -0.73900
O132        O  0.33695390  0.02846022  0.03612570    -0.73700
C133        C  0.25145443  0.99991618  0.10431058     0.78100
C134        C  0.14300900  0.48428800  0.51185986     0.78600
C135        C  0.19699707  0.10279647  0.50236458     0.77600
C136        C  0.24441557  0.99990487  0.39515966     0.78000
C137        C  0.29990502  0.39643680  0.49814901     0.79100
C138        C  0.35572161  0.01451166  0.50672524     0.78100
Zn139      Zn  0.08341004  0.27359036  0.46554473     1.49700
Zn140      Zn  0.14711253  0.29501473  0.03130627     1.49400
Zn141      Zn  0.10263236  0.20497397  0.03128734     1.49100
Zn142      Zn  0.16635601  0.22642926  0.46554429     1.49500
O143        O  0.12487935  0.25000059  0.50025366    -1.83100
O144        O  0.05817746  0.32732906  0.48328628    -0.73800
O145        O  0.13360285  0.28383704  0.08657214    -0.73600
O146        O  0.03585866  0.21755128  0.02655447    -0.73100
O147        O  0.11406620  0.35155799  0.01769364    -0.73800
O148        O  0.03601986  0.23390475  0.46662445    -0.73400
O149        O  0.11614338  0.21611762  0.08656454    -0.74000
O150        O  0.19156651  0.17267112  0.48326010    -0.73400
O151        O  0.21388983  0.28245501  0.02658791    -0.74100
O152        O  0.13565939  0.14843229  0.01764084    -0.73500
O153        O  0.21375420  0.26610415  0.46665702    -0.74000
O154        O  0.14546173  0.22132468  0.41253569    -0.73900
O155        O  0.10431461  0.27873312  0.41254116    -0.73700
C156        C  0.07598754  0.35645982  0.50201781     0.78100
C157        C  0.12487388  0.24997488  0.10412371     0.78600
C158        C  0.01842178  0.23640307  0.49853886     0.77600
C159        C  0.17373917  0.14353048  0.50196796     0.78000
C160        C  0.23133881  0.26360540  0.49857746     0.79100
C161        C  0.12488787  0.25003119  0.39516929     0.78100
Zn162      Zn  0.41515651  0.22623084  0.03545238     1.49700
Zn163      Zn  0.35326897  0.20467206  0.46897720     1.49400
Zn164      Zn  0.33462845  0.27382112  0.03544535     1.49100
Zn165      Zn  0.39648783  0.29534012  0.46895079     1.49500
O166        O  0.37488653  0.25001332  0.49968881    -1.83100
O167        O  0.44131912  0.17261246  0.01979963    -0.73800
O168        O  0.28648846  0.21626464  0.47550065    -0.73600
O169        O  0.35751026  0.28044608  0.08731269    -0.73100
O170        O  0.38826535  0.14891616  0.48220371    -0.73800
O171        O  0.39228420  0.21966940  0.08732938    -0.73400
O172        O  0.28766411  0.23359079  0.03533849    -0.74000
O173        O  0.36149358  0.35110297  0.48215455    -0.73400
O174        O  0.36548766  0.21629028  0.41329874    -0.74100
O175        O  0.30844481  0.32740837  0.01975430    -0.73500
O176        O  0.38422764  0.28369823  0.41328866    -0.74000
O177        O  0.46327350  0.28374341  0.47544924    -0.73900
O178        O  0.46212145  0.26645956  0.03529692    -0.73700
C179        C  0.42514908  0.14373834  0.49981063     0.78100
C180        C  0.26954202  0.23552193  0.50356690     0.78600
C181        C  0.37489140  0.25006072  0.10469036     0.77600
C182        C  0.32460518  0.35627634  0.49975407     0.78000
C183        C  0.37485030  0.24999335  0.39567789     0.79100
C184        C  0.48022686  0.26449910  0.50352059     0.78100
Zn185      Zn  0.45601344  0.48291884  0.78385386     1.49700
Zn186      Zn  0.48029322  0.04382160  0.71646405     1.49400
Zn187      Zn  0.04913254  0.01635013  0.78124404     1.49100
Zn188      Zn  0.01974593  0.45575294  0.71538739     1.49500
O189        O  0.00119470  0.99984605  0.74954364    -1.83100
O190        O  0.41050792  0.52344057  0.77432122    -0.73800
O191        O  0.51421294  0.09894807  0.73203618    -0.73600
O192        O  0.03877748  0.01322292  0.83671861    -0.73100
O193        O  0.41275756  0.02850568  0.71355078    -0.73800
O194        O  0.47100993  0.48677382  0.83779410    -0.73400
O195        O  0.07099408  0.07282806  0.76506916    -0.74000
O196        O  0.08730838  0.47048798  0.70871821    -0.73400
O197        O  0.49843977  0.03455117  0.66297239    -0.74100
O198        O  0.09152235  0.97385508  0.76925529    -0.73500
O199        O  0.99845477  0.46512990  0.66274694    -0.74000
O200        O  0.98602731  0.40116584  0.73272613    -0.73900
O201        O  0.43365422  0.42585957  0.77129372    -0.73700
C202        C  0.39398286  0.01455685  0.74294834     0.78100
C203        C  0.05274740  0.10278845  0.74734853     0.78600
C204        C  0.50528220  0.49988297  0.85453481     0.77600
C205        C  0.10668820  0.48429790  0.73781397     0.78000
C206        C  0.99823608  0.99991249  0.64538532     0.79100
C207        C  0.44979464  0.39645157  0.75156475     0.78100
Zn208      Zn  0.20057728  0.48364159  0.78118657     1.49700
Zn209      Zn  0.29365476  0.01712826  0.78379569     1.49400
Zn210      Zn  0.26943815  0.45620266  0.71641503     1.49100
Zn211      Zn  0.22990375  0.04426614  0.71532530     1.49500
O212        O  0.24849232  0.50017668  0.74947556    -1.83100
O213        O  0.21094228  0.48673517  0.83666116    -0.73800
O214        O  0.33917712  0.97661575  0.77430072    -0.73600
O215        O  0.23553412  0.40106213  0.73199102    -0.73100
O216        O  0.27866025  0.01329318  0.83773538    -0.73800
O217        O  0.17872558  0.42717066  0.76499542    -0.73400
O218        O  0.33697082  0.47155028  0.71353052    -0.74000
O219        O  0.25115194  0.03487386  0.66267386    -0.73400
O220        O  0.31600846  0.07418031  0.77122498    -0.74100
O221        O  0.25131987  0.46545041  0.66291363    -0.73500
O222        O  0.26364154  0.09886287  0.73264437    -0.74000
O223        O  0.16233345  0.02952202  0.70869892    -0.73900
O224        O  0.15817510  0.52613766  0.76923769    -0.73700
C225        C  0.24441436  0.50012741  0.85447724     0.78100
C226        C  0.35572472  0.48549994  0.74293749     0.78600
C227        C  0.19699267  0.39721208  0.74728940     0.77600
C228        C  0.25144990  0.50008603  0.64532072     0.78000
C229        C  0.29987165  0.10358305  0.75148804     0.79100
C230        C  0.14298063  0.01570337  0.73780451     0.78100
Zn231      Zn  0.16633760  0.27360806  0.78418884     1.51300
Zn232      Zn  0.10262194  0.29500704  0.71843313     1.49400
Zn233      Zn  0.14712431  0.20496874  0.71844884     1.49100
Zn234      Zn  0.08341509  0.22640947  0.78419866     1.49500
O235        O  0.12487479  0.24999957  0.74948397    -1.83100
O236        O  0.19155367  0.32735356  0.76644387    -0.73800
O237        O  0.11612889  0.28383236  0.66316650    -0.73600
O238        O  0.21389719  0.21754389  0.72317602    -0.73100
O239        O  0.13565461  0.35156360  0.73203573    -0.73800
O240        O  0.21373141  0.23392338  0.78310038    -0.73400
O241        O  0.13361965  0.21611917  0.66317282    -0.74000
O242        O  0.05821126  0.17264816  0.76648954    -0.73400
O243        O  0.03585125  0.28241557  0.72316042    -0.74100
O244        O  0.11409232  0.14841959  0.73207401    -0.73500
O245        O  0.03598582  0.26605560  0.78309153    -0.74000
O246        O  0.10432283  0.22131397  0.83720441    -0.73900
O247        O  0.14543555  0.27874203  0.83719469    -0.73700
C248        C  0.17373365  0.35647761  0.74770827     0.78100
C249        C  0.12487389  0.24997414  0.64561436     0.78600
C250        C  0.23132470  0.23641656  0.75118356     0.77600
C251        C  0.07602014  0.14351546  0.74775903     0.78000
C252        C  0.01839981  0.26356684  0.75117070     0.79100
C253        C  0.12488117  0.25003034  0.85456862     0.78100
Zn254      Zn  0.33457325  0.22624183  0.71427293     1.49700
Zn255      Zn  0.41510471  0.27381880  0.71430003     1.49400
Zn256      Zn  0.35322719  0.29535291  0.78077252     1.49100
Zn257      Zn  0.39643676  0.20467261  0.78075649     1.49500
O258        O  0.37483159  0.25001821  0.75004519    -1.83100
O259        O  0.35747561  0.21966735  0.66240760    -0.73800
O260        O  0.44128745  0.32740613  0.72999291    -0.73600
O261        O  0.28644566  0.28378319  0.77425952    -0.73100
O262        O  0.39223428  0.28044877  0.66242890    -0.73800
O263        O  0.28761353  0.26648108  0.71441632    -0.73400
O264        O  0.38821407  0.35111405  0.76756223    -0.74000
O265        O  0.38419882  0.21629071  0.83643007    -0.73400
O266        O  0.46206402  0.23358000  0.71440834    -0.74100
O267        O  0.36547010  0.28370388  0.83643857    -0.73500
O268        O  0.46322199  0.21625709  0.77424728    -0.74000
O269        O  0.36143883  0.14892263  0.76751732    -0.73900
O270        O  0.30839404  0.17263160  0.72991687    -0.73700
C271        C  0.37486622  0.25006001  0.64504871     0.78100
C272        C  0.42510919  0.35628383  0.74997295     0.78600
C273        C  0.26950370  0.26452650  0.74619172     0.77600
C274        C  0.37483704  0.24999483  0.85404994     0.78000
C275        C  0.48018222  0.23550386  0.74618149     0.79100
C276        C  0.32455814  0.14375220  0.74990430     0.78100
Zn277      Zn  0.04911670  0.48360525  0.96850780     1.49700
Zn278      Zn  0.01980085  0.04424235  0.53436438     1.49400
Zn279      Zn  0.45605535  0.01711701  0.96589749     1.49100
Zn280      Zn  0.48026050  0.45617289  0.53327999     1.49500
O281        O  0.50120728  0.00014915  0.50022058    -1.83100
O282        O  0.09150454  0.52611643  0.98044331    -0.73800
O283        O  0.98606876  0.09884243  0.51705238    -0.73600
O284        O  0.47105381  0.01329537  0.91196019    -0.73100
O285        O  0.08736968  0.02950874  0.54098304    -0.73800
O286        O  0.03874804  0.48667897  0.91303192    -0.73400
O287        O  0.43369246  0.07416697  0.97848050    -0.74000
O288        O  0.41272624  0.47149778  0.53614210    -0.73400
O289        O  0.99856350  0.03485800  0.58701738    -0.74100
O290        O  0.41054406  0.97659234  0.97537226    -0.73500
O291        O  0.49835222  0.46543404  0.58678770    -0.74000
O292        O  0.51417481  0.40103564  0.51771879    -0.73900
O293        O  0.07098170  0.42714539  0.98471565    -0.73700
C294        C  0.10671239  0.01568809  0.51187376     0.78100
C295        C  0.44983370  0.10356684  0.49821699     0.78600
C296        C  0.50528647  0.00009990  0.89521699     0.77600
C297        C  0.39398365  0.48545980  0.50673408     0.78000
C298        C  0.49824180  0.00007332  0.60437506     0.79100
C299        C  0.05271910  0.39718880  0.50242580     0.78100
Zn300      Zn  0.26942899  0.04380137  0.53322392     1.49700
Zn301      Zn  0.22993795  0.45573950  0.53430866     1.49400
Zn302      Zn  0.20057476  0.01637290  0.96845460     1.49100
Zn303      Zn  0.29366542  0.48289160  0.96583817     1.49500
O304        O  0.24849863  0.99983481  0.00015465    -1.83100
O305        O  0.25128821  0.03455127  0.58671769    -0.73800
O306        O  0.16237232  0.47045647  0.54095607    -0.73600
O307        O  0.17872151  0.07284188  0.98465984    -0.73100
O308        O  0.25120015  0.46512941  0.58695607    -0.73800
O309        O  0.23554423  0.09894306  0.51765093    -0.73400
O310        O  0.15819032  0.97386747  0.98041810    -0.74000
O311        O  0.27866830  0.48674715  0.91189963    -0.73400
O312        O  0.26367548  0.40115283  0.51699171    -0.74100
O313        O  0.21093669  0.01328262  0.91297720    -0.73500
O314        O  0.31602958  0.42583714  0.97840371    -0.74000
O315        O  0.33918941  0.52339503  0.97535447    -0.73900
O316        O  0.33695380  0.02846025  0.53612564    -0.73700
C317        C  0.25145435  0.99991617  0.60431062     0.78100
C318        C  0.14300901  0.48428803  0.01185987     0.78600
C319        C  0.19699701  0.10279648  0.00236456     0.77600
C320        C  0.24441544  0.99990487  0.89515964     0.78000
C321        C  0.29990490  0.39643678  0.99814897     0.79100
C322        C  0.35572156  0.01451152  0.00672527     0.78100
Zn323      Zn  0.08341016  0.27359034  0.96554476     1.49700
Zn324      Zn  0.14711241  0.29501471  0.53130630     1.49400
Zn325      Zn  0.10263248  0.20497396  0.53128717     1.49100
Zn326      Zn  0.16635590  0.22642925  0.96554432     1.49500
O327        O  0.12487940  0.25000057  0.00025371    -1.83100
O328        O  0.05817744  0.32732903  0.98328633    -0.73800
O329        O  0.13360276  0.28383704  0.58657218    -0.73600
O330        O  0.03585866  0.21755121  0.52655451    -0.73100
O331        O  0.11406627  0.35155797  0.51769355    -0.73800
O332        O  0.03601980  0.23390477  0.96662438    -0.73400
O333        O  0.11614332  0.21611761  0.58656452    -0.74000
O334        O  0.19156643  0.17267115  0.98326011    -0.73400
O335        O  0.21388985  0.28245501  0.52658790    -0.74100
O336        O  0.13565948  0.14843230  0.51764086    -0.73500
O337        O  0.21375411  0.26610412  0.96665705    -0.74000
O338        O  0.14546186  0.22132472  0.91253570    -0.73900
O339        O  0.10431457  0.27873303  0.91254115    -0.73700
C340        C  0.07598748  0.35645982  0.00201788     0.78100
C341        C  0.12487385  0.24997485  0.60412372     0.78600
C342        C  0.01842170  0.23640304  0.99853877     0.77600
C343        C  0.17373910  0.14353049  0.00196796     0.78000
C344        C  0.23133877  0.26360543  0.99857748     0.79100
C345        C  0.12488791  0.25003115  0.89516928     0.78100
Zn346      Zn  0.41515639  0.22623083  0.53545241     1.49700
Zn347      Zn  0.35326882  0.20467205  0.96897723     1.49400
Zn348      Zn  0.33462859  0.27382110  0.53544536     1.49100
Zn349      Zn  0.39648793  0.29534011  0.96895081     1.49500
O350        O  0.37488645  0.25001334  0.99968883    -1.83100
O351        O  0.44131918  0.17261246  0.51979966    -0.73800
O352        O  0.28648832  0.21626460  0.97550066    -0.73600
O353        O  0.35751009  0.28044616  0.58731273    -0.73100
O354        O  0.38826525  0.14891614  0.98220373    -0.73800
O355        O  0.39228411  0.21966953  0.58732939    -0.73400
O356        O  0.28766409  0.23359079  0.53533852    -0.74000
O357        O  0.36149342  0.35110290  0.98215442    -0.73400
O358        O  0.36548752  0.21629028  0.91329873    -0.74100
O359        O  0.30844483  0.32740829  0.51975416    -0.73500
O360        O  0.38422755  0.28369822  0.91328868    -0.74000
O361        O  0.46327345  0.28374339  0.97544922    -0.73900
O362        O  0.46212135  0.26645955  0.53529694    -0.73700
C363        C  0.42514901  0.14373834  0.99981064     0.78100
C364        C  0.26954197  0.23552192  0.00356690     0.78600
C365        C  0.37489126  0.25006081  0.60469038     0.77600
C366        C  0.32460512  0.35627636  0.99975408     0.78000
C367        C  0.37485022  0.24999336  0.89567786     0.79100
C368        C  0.48022683  0.26449904  0.00352055     0.78100
Zn369      Zn  0.45601353  0.98291879  0.28385382     1.49700
Zn370      Zn  0.48029331  0.54382159  0.21646402     1.49400
Zn371      Zn  0.04913261  0.51635010  0.28124401     1.49100
Zn372      Zn  0.01974598  0.95575314  0.21538737     1.49500
O373        O  0.00119486  0.49984601  0.24954359    -1.83100
O374        O  0.41050805  0.02344042  0.27432120    -0.73800
O375        O  0.51421298  0.59894809  0.23203611    -0.73600
O376        O  0.03877750  0.51322280  0.33671862    -0.73100
O377        O  0.41275759  0.52850588  0.21355074    -0.73800
O378        O  0.47100991  0.98677385  0.33779405    -0.73400
O379        O  0.07099401  0.57282801  0.26506918    -0.74000
O380        O  0.08730833  0.97048805  0.20871828    -0.73400
O381        O  0.49843991  0.53455119  0.16297242    -0.74100
O382        O  0.09152224  0.47385507  0.26925529    -0.73500
O383        O  0.99845458  0.96512982  0.16274698    -0.74000
O384        O  0.98602744  0.90116587  0.23272632    -0.73900
O385        O  0.43365400  0.92585960  0.27129369    -0.73700
C386        C  0.39398292  0.51455687  0.24294826     0.78100
C387        C  0.05274743  0.60278843  0.24734854     0.78600
C388        C  0.50528219  0.99988297  0.35453477     0.77600
C389        C  0.10668823  0.98429788  0.23781407     0.78000
C390        C  0.99823598  0.49991252  0.14538536     0.79100
C391        C  0.44979458  0.89645165  0.25156478     0.78100
Zn392      Zn  0.20057736  0.98364156  0.28118655     1.49700
Zn393      Zn  0.29365482  0.51712822  0.28379565     1.49400
Zn394      Zn  0.26943824  0.95620266  0.21641500     1.49100
Zn395      Zn  0.22990381  0.54426611  0.21532548     1.49500
O396        O  0.24849233  0.00017667  0.24947560    -1.83100
O397        O  0.21094227  0.98673522  0.33666118    -0.73800
O398        O  0.33917724  0.47661579  0.27430070    -0.73600
O399        O  0.23553421  0.90106211  0.23199098    -0.73100
O400        O  0.27866033  0.51329311  0.33773536    -0.73800
O401        O  0.17872568  0.92717066  0.26499538    -0.73400
O402        O  0.33697077  0.97155044  0.21353057    -0.74000
O403        O  0.25115197  0.53487374  0.16267390    -0.73400
O404        O  0.31600839  0.57418028  0.27122500    -0.74100
O405        O  0.25131996  0.96545051  0.16291363    -0.73500
O406        O  0.26364161  0.59886288  0.23264432    -0.74000
O407        O  0.16233341  0.52952207  0.20869912    -0.73900
O408        O  0.15817516  0.02613764  0.26923781    -0.73700
C409        C  0.24441438  0.00012745  0.35447725     0.78100
C410        C  0.35572467  0.98550002  0.24293755     0.78600
C411        C  0.19699274  0.89721208  0.24728934     0.77600
C412        C  0.25144986  0.00008610  0.14532070     0.78000
C413        C  0.29987170  0.60358302  0.25148803     0.79100
C414        C  0.14298062  0.51570335  0.23780468     0.78100
Zn415      Zn  0.16633740  0.77360804  0.28418880     1.51300
Zn416      Zn  0.10262198  0.79500702  0.21843309     1.49400
Zn417      Zn  0.14712440  0.70496873  0.21844880     1.49100
Zn418      Zn  0.08341517  0.72640943  0.28419866     1.49500
O419        O  0.12487468  0.74999952  0.24948391    -1.83100
O420        O  0.19155356  0.82735363  0.26644393    -0.73800
O421        O  0.11612873  0.78383231  0.16316646    -0.73600
O422        O  0.21389720  0.71754406  0.22317593    -0.73100
O423        O  0.13565467  0.85156362  0.23203563    -0.73800
O424        O  0.21373128  0.73392338  0.28310031    -0.73400
O425        O  0.13361976  0.71611917  0.16317278    -0.74000
O426        O  0.05821140  0.67264808  0.26648974    -0.73400
O427        O  0.03585118  0.78241559  0.22316039    -0.74100
O428        O  0.11409236  0.64841958  0.23207403    -0.73500
O429        O  0.03598591  0.76605556  0.28309149    -0.74000
O430        O  0.10432283  0.72131391  0.33720446    -0.73900
O431        O  0.14543554  0.77874197  0.33719470    -0.73700
C432        C  0.17373366  0.85647764  0.24770821     0.78100
C433        C  0.12487386  0.74997412  0.14561433     0.78600
C434        C  0.23132471  0.73641656  0.25118353     0.77600
C435        C  0.07602023  0.64351542  0.24775914     0.78000
C436        C  0.01839981  0.76356680  0.25117069     0.79100
C437        C  0.12488110  0.75003034  0.35456865     0.78100
Zn438      Zn  0.33457309  0.72624180  0.21427292     1.49700
Zn439      Zn  0.41510456  0.77381878  0.21430002     1.49400
Zn440      Zn  0.35322724  0.79535287  0.28077251     1.49100
Zn441      Zn  0.39643683  0.70467259  0.28075647     1.49500
O442        O  0.37483156  0.75001814  0.25004516    -1.83100
O443        O  0.35747571  0.71966734  0.16240768    -0.73800
O444        O  0.44128757  0.82740606  0.22999304    -0.73600
O445        O  0.28644561  0.78378323  0.27425950    -0.73100
O446        O  0.39223436  0.78044877  0.16242886    -0.73800
O447        O  0.28761356  0.76648108  0.21441632    -0.73400
O448        O  0.38821410  0.85111403  0.26756221    -0.74000
O449        O  0.38419894  0.71629075  0.33643010    -0.73400
O450        O  0.46206404  0.73358001  0.21440837    -0.74100
O451        O  0.36546994  0.78370387  0.33643868    -0.73500
O452        O  0.46322190  0.71625733  0.27424736    -0.74000
O453        O  0.36143885  0.64892261  0.26751746    -0.73900
O454        O  0.30839416  0.67263153  0.22991686    -0.73700
C455        C  0.37486631  0.75005997  0.14504872     0.78100
C456        C  0.42510924  0.85628381  0.24997298     0.78600
C457        C  0.26950372  0.76452647  0.24619173     0.77600
C458        C  0.37483708  0.74999482  0.35405000     0.78000
C459        C  0.48018225  0.73550388  0.24618151     0.79100
C460        C  0.32455822  0.64375216  0.24990432     0.78100
Zn461      Zn  0.04911678  0.98360521  0.46850776     1.49700
Zn462      Zn  0.01980091  0.54424234  0.03436436     1.49400
Zn463      Zn  0.45605538  0.51711698  0.46589744     1.49100
Zn464      Zn  0.48026055  0.95617288  0.03327997     1.49500
O465        O  0.50120723  0.50014915  0.00022067    -1.83100
O466        O  0.09150452  0.02611646  0.48044335    -0.73800
O467        O  0.98606873  0.59884238  0.01705243    -0.73600
O468        O  0.47105375  0.51329557  0.41196012    -0.73100
O469        O  0.08736955  0.52950868  0.04098300    -0.73800
O470        O  0.03874795  0.98667896  0.41303190    -0.73400
O471        O  0.43369237  0.57416694  0.47848052    -0.74000
O472        O  0.41272612  0.97149770  0.03614208    -0.73400
O473        O  0.99856355  0.53485798  0.08701737    -0.74100
O474        O  0.41054407  0.47659215  0.47537224    -0.73500
O475        O  0.49835227  0.96543398  0.08678767    -0.74000
O476        O  0.51417462  0.90103558  0.01771875    -0.73900
O477        O  0.07098178  0.92714535  0.48471563    -0.73700
C478        C  0.10671230  0.51568804  0.01187373     0.78100
C479        C  0.44983372  0.60356683  0.99821698     0.78600
C480        C  0.50528635  0.50009992  0.39521695     0.77600
C481        C  0.39398354  0.98545977  0.00673409     0.78000
C482        C  0.49824193  0.50007331  0.10437512     0.79100
C483        C  0.05271902  0.89718876  0.00242579     0.78100
Zn484      Zn  0.26942907  0.54380138  0.03322389     1.49700
Zn485      Zn  0.22993780  0.95573947  0.03430862     1.49400
Zn486      Zn  0.20057484  0.51637288  0.46845457     1.49100
Zn487      Zn  0.29366551  0.98289158  0.46583817     1.49500
O488        O  0.24849864  0.49983482  0.50015464    -1.83100
O489        O  0.25128830  0.53455132  0.08671769    -0.73800
O490        O  0.16237232  0.97045646  0.04095608    -0.73600
O491        O  0.17872160  0.57284185  0.48465983    -0.73100
O492        O  0.25120020  0.96512933  0.08695606    -0.73800
O493        O  0.23554431  0.59894316  0.01765084    -0.73400
O494        O  0.15819025  0.47386750  0.48041808    -0.74000
O495        O  0.27866835  0.98674717  0.41189967    -0.73400
O496        O  0.26367553  0.90115285  0.01699167    -0.74100
O497        O  0.21093674  0.51328258  0.41297716    -0.73500
O498        O  0.31602971  0.92583717  0.47840385    -0.74000
O499        O  0.33918942  0.02339504  0.47535442    -0.73900
O500        O  0.33695384  0.52846021  0.03612570    -0.73700
C501        C  0.25145444  0.49991615  0.10431059     0.78100
C502        C  0.14300905  0.98428802  0.51185985     0.78600
C503        C  0.19699702  0.60279649  0.50236458     0.77600
C504        C  0.24441549  0.49990479  0.39515966     0.78000
C505        C  0.29990495  0.89643681  0.49814903     0.79100
C506        C  0.35572172  0.51451163  0.50672522     0.78100
Zn507      Zn  0.08340998  0.77359031  0.46554473     1.49700
Zn508      Zn  0.14711248  0.79501469  0.03130627     1.49400
Zn509      Zn  0.10263232  0.70497392  0.03128734     1.49100
Zn510      Zn  0.16635596  0.72642922  0.46554429     1.49500
O511        O  0.12487929  0.75000052  0.50025370    -1.83100
O512        O  0.05817741  0.82732902  0.48328628    -0.73800
O513        O  0.13360280  0.78383700  0.08657214    -0.73600
O514        O  0.03585861  0.71755123  0.02655447    -0.73100
O515        O  0.11406616  0.85155793  0.01769365    -0.73800
O516        O  0.03601981  0.73390471  0.46662443    -0.73400
O517        O  0.11614333  0.71611758  0.08656454    -0.74000
O518        O  0.19156644  0.67267110  0.48326009    -0.73400
O519        O  0.21388979  0.78245495  0.02658789    -0.74100
O520        O  0.13565947  0.64843226  0.01764090    -0.73500
O521        O  0.21375415  0.76610411  0.46665702    -0.74000
O522        O  0.14546168  0.72132464  0.41253569    -0.73900
O523        O  0.10431456  0.77873308  0.41254116    -0.73700
C524        C  0.07598749  0.85645978  0.50201781     0.78100
C525        C  0.12487383  0.74997483  0.10412371     0.78600
C526        C  0.01842179  0.73640302  0.49853887     0.77600
C527        C  0.17373909  0.64353046  0.50196795     0.78000
C528        C  0.23133875  0.76360536  0.49857746     0.79100
C529        C  0.12488782  0.75003115  0.39516929     0.78100
Zn530      Zn  0.41515648  0.72623081  0.03545239     1.49700
Zn531      Zn  0.35326891  0.70467204  0.46897720     1.49400
Zn532      Zn  0.33462841  0.77382108  0.03544533     1.49100
Zn533      Zn  0.39648778  0.79534008  0.46895079     1.49500
O534        O  0.37488647  0.75001329  0.49968881    -1.83100
O535        O  0.44131912  0.67261244  0.01979968    -0.73800
O536        O  0.28648841  0.71626460  0.47550066    -0.73600
O537        O  0.35751015  0.78044612  0.08731270    -0.73100
O538        O  0.38826533  0.64891626  0.48220369    -0.73800
O539        O  0.39228421  0.71966950  0.08732937    -0.73400
O540        O  0.28766406  0.73359075  0.03533850    -0.74000
O541        O  0.36149353  0.85110298  0.48215455    -0.73400
O542        O  0.36548762  0.71629030  0.41329873    -0.74100
O543        O  0.30844476  0.82740832  0.01975409    -0.73500
O544        O  0.38422760  0.78369825  0.41328867    -0.74000
O545        O  0.46327348  0.78374334  0.47544924    -0.73900
O546        O  0.46212140  0.76645952  0.03529692    -0.73700
C547        C  0.42514903  0.64373836  0.49981063     0.78100
C548        C  0.26954196  0.73552189  0.50356690     0.78600
C549        C  0.37489133  0.75006076  0.10469036     0.77600
C550        C  0.32460514  0.85627636  0.49975408     0.78000
C551        C  0.37485031  0.74999339  0.39567788     0.79100
C552        C  0.48022685  0.76449903  0.50352058     0.78100
Zn553      Zn  0.45601366  0.98291879  0.78385386     1.49700
Zn554      Zn  0.48029319  0.54382159  0.71646404     1.49400
Zn555      Zn  0.04913249  0.51635009  0.78124404     1.49100
Zn556      Zn  0.01974587  0.95575314  0.71538739     1.49500
O557        O  0.00119473  0.49984599  0.74954362    -1.83100
O558        O  0.41050796  0.02344038  0.77432127    -0.73800
O559        O  0.51421290  0.59894807  0.73203620    -0.73600
O560        O  0.03877738  0.51322280  0.83671861    -0.73100
O561        O  0.41275751  0.52850587  0.71355076    -0.73800
O562        O  0.47100995  0.98677379  0.83779410    -0.73400
O563        O  0.07099403  0.57282802  0.76506917    -0.74000
O564        O  0.08730838  0.97048798  0.70871819    -0.73400
O565        O  0.49843999  0.53455128  0.66297240    -0.74100
O566        O  0.09152231  0.47385509  0.76925532    -0.73500
O567        O  0.99845471  0.96512983  0.66274693    -0.74000
O568        O  0.98602735  0.90116588  0.73272613    -0.73900
O569        O  0.43365418  0.92585956  0.77129376    -0.73700
C570        C  0.39398290  0.51455686  0.74294830     0.78100
C571        C  0.05274735  0.60278841  0.74734854     0.78600
C572        C  0.50528221  0.99988296  0.85453481     0.77600
C573        C  0.10668828  0.98429784  0.73781396     0.78000
C574        C  0.99823609  0.49991256  0.64538533     0.79100
C575        C  0.44979462  0.89645161  0.75156474     0.78100
Zn576      Zn  0.20057725  0.98364157  0.78118657     1.49700
Zn577      Zn  0.29365471  0.51712822  0.78379548     1.49400
Zn578      Zn  0.26943839  0.95620267  0.71641503     1.49100
Zn579      Zn  0.22990371  0.54426611  0.71532531     1.49500
O580        O  0.24849240  0.00017669  0.74947561    -1.83100
O581        O  0.21094223  0.98673517  0.83666117    -0.73800
O582        O  0.33917718  0.47661580  0.77430073    -0.73600
O583        O  0.23553416  0.90106224  0.73199095    -0.73100
O584        O  0.27866031  0.51329315  0.83773533    -0.73800
O585        O  0.17872567  0.92717065  0.76499548    -0.73400
O586        O  0.33697094  0.97155041  0.71353048    -0.74000
O587        O  0.25115187  0.53487376  0.66267389    -0.73400
O588        O  0.31600853  0.57418025  0.77122500    -0.74100
O589        O  0.25131987  0.96545051  0.66291368    -0.73500
O590        O  0.26364176  0.59886284  0.73264431    -0.74000
O591        O  0.16233341  0.52952199  0.70869897    -0.73900
O592        O  0.15817513  0.02613769  0.76923763    -0.73700
C593        C  0.24441428  0.00012747  0.85447725     0.78100
C594        C  0.35572471  0.98549999  0.74293751     0.78600
C595        C  0.19699272  0.89721215  0.74728935     0.77600
C596        C  0.25144991  0.00008608  0.64532073     0.78000
C597        C  0.29987184  0.60358300  0.75148803     0.79100
C598        C  0.14298057  0.51570337  0.73780458     0.78100
Zn599      Zn  0.16633757  0.77360827  0.78418884     1.51300
Zn600      Zn  0.10262189  0.79500700  0.71843313     1.49400
Zn601      Zn  0.14712427  0.70496872  0.71844884     1.49100
Zn602      Zn  0.08341504  0.72640943  0.78419866     1.49500
O603        O  0.12487474  0.74999957  0.74948398    -1.83100
O604        O  0.19155371  0.82735370  0.76644392    -0.73800
O605        O  0.11612884  0.78383233  0.66316650    -0.73600
O606        O  0.21389713  0.71754411  0.72317599    -0.73100
O607        O  0.13565465  0.85156359  0.73203572    -0.73800
O608        O  0.21373139  0.73392345  0.78310038    -0.73400
O609        O  0.13361959  0.71611914  0.66317282    -0.74000
O610        O  0.05821121  0.67264812  0.76648954    -0.73400
O611        O  0.03585122  0.78241554  0.72316041    -0.74100
O612        O  0.11409228  0.64841955  0.73207401    -0.73500
O613        O  0.03598577  0.76605556  0.78309153    -0.74000
O614        O  0.10432278  0.72131398  0.83720440    -0.73900
O615        O  0.14543572  0.77874195  0.83719473    -0.73700
C616        C  0.17373370  0.85647767  0.74770822     0.78100
C617        C  0.12487385  0.74997411  0.64561437     0.78600
C618        C  0.23132468  0.73641665  0.75118357     0.77600
C619        C  0.07602009  0.64351542  0.74775903     0.78000
C620        C  0.01839977  0.76356682  0.75117068     0.79100
C621        C  0.12488119  0.75003031  0.85456862     0.78100
Zn622      Zn  0.33457322  0.72624179  0.71427292     1.49700
Zn623      Zn  0.41510468  0.77381877  0.71429982     1.49400
Zn624      Zn  0.35322714  0.79535288  0.78077252     1.49100
Zn625      Zn  0.39643673  0.70467259  0.78075649     1.49500
O626        O  0.37483156  0.75001818  0.75004514    -1.83100
O627        O  0.35747556  0.71966732  0.66240755    -0.73800
O628        O  0.44128758  0.82740610  0.72999292    -0.73600
O629        O  0.28644566  0.78378318  0.77425953    -0.73100
O630        O  0.39223422  0.78044875  0.66242879    -0.73800
O631        O  0.28761350  0.76648105  0.71441633    -0.73400
O632        O  0.38821408  0.85111399  0.76756217    -0.74000
O633        O  0.38419873  0.71629076  0.83643006    -0.73400
O634        O  0.46206400  0.73357996  0.71440830    -0.74100
O635        O  0.36547009  0.78370397  0.83643859    -0.73500
O636        O  0.46322190  0.71625730  0.77424731    -0.74000
O637        O  0.36143908  0.64892256  0.76751732    -0.73900
O638        O  0.30839428  0.67263154  0.72991688    -0.73700
C639        C  0.37486617  0.75005996  0.64504865     0.78100
C640        C  0.42510923  0.85628380  0.74997294     0.78600
C641        C  0.26950370  0.76452652  0.74619173     0.77600
C642        C  0.37483704  0.74999487  0.85404994     0.78000
C643        C  0.48018218  0.73550390  0.74618147     0.79100
C644        C  0.32455839  0.64375214  0.74990429     0.78100
Zn645      Zn  0.04911667  0.98360522  0.96850780     1.49700
Zn646      Zn  0.01980080  0.54424231  0.53436438     1.49400
Zn647      Zn  0.45605531  0.51711699  0.96589749     1.49100
Zn648      Zn  0.48026070  0.95617287  0.53327996     1.49500
O649        O  0.50120717  0.50014914  0.50022060    -1.83100
O650        O  0.09150458  0.02611644  0.98044332    -0.73800
O651        O  0.98606873  0.59884236  0.51705238    -0.73600
O652        O  0.47105383  0.51329554  0.91196018    -0.73100
O653        O  0.08736962  0.52950870  0.54098304    -0.73800
O654        O  0.03874806  0.98667895  0.91303189    -0.73400
O655        O  0.43369249  0.57416694  0.97848054    -0.74000
O656        O  0.41272624  0.97149774  0.53614206    -0.73400
O657        O  0.99856344  0.53485800  0.58701736    -0.74100
O658        O  0.41054407  0.47659236  0.97537226    -0.73500
O659        O  0.49835223  0.96543406  0.58678759    -0.74000
O660        O  0.51417479  0.90103559  0.51771879    -0.73900
O661        O  0.07098170  0.92714535  0.98471561    -0.73700
C662        C  0.10671232  0.51568806  0.51187376     0.78100
C663        C  0.44983363  0.60356681  0.49821699     0.78600
C664        C  0.50528646  0.50009997  0.89521699     0.77600
C665        C  0.39398360  0.98545985  0.50673408     0.78000
C666        C  0.49824179  0.50007334  0.60437511     0.79100
C667        C  0.05271905  0.89718876  0.50242580     0.78100
Zn668      Zn  0.26942897  0.54380137  0.53322392     1.49700
Zn669      Zn  0.22993792  0.95573969  0.53430866     1.49400
Zn670      Zn  0.20057471  0.51637288  0.96845459     1.49100
Zn671      Zn  0.29366541  0.98289156  0.96583816     1.49500
O672        O  0.24849851  0.49983484  0.00015463    -1.83100
O673        O  0.25128817  0.53455136  0.58671772    -0.73800
O674        O  0.16237231  0.97045645  0.54095607    -0.73600
O675        O  0.17872155  0.57284186  0.98465990    -0.73100
O676        O  0.25120010  0.96512934  0.58695610    -0.73800
O677        O  0.23554420  0.59894316  0.51765091    -0.73400
O678        O  0.15819034  0.47386749  0.98041812    -0.74000
O679        O  0.27866823  0.98674716  0.91189961    -0.73400
O680        O  0.26367541  0.90115287  0.51699171    -0.74100
O681        O  0.21093671  0.51328252  0.91297718    -0.73500
O682        O  0.31602974  0.92583714  0.97840370    -0.74000
O683        O  0.33918943  0.02339500  0.97535447    -0.73900
O684        O  0.33695392  0.52846024  0.53612562    -0.73700
C685        C  0.25145437  0.49991621  0.60431062     0.78100
C686        C  0.14300903  0.98428800  0.01185987     0.78600
C687        C  0.19699708  0.60279651  0.00236456     0.77600
C688        C  0.24441548  0.49990479  0.89515964     0.78000
C689        C  0.29990503  0.89643680  0.99814896     0.79100
C690        C  0.35572159  0.51451161  0.00672527     0.78100
Zn691      Zn  0.08341011  0.77359030  0.96554476     1.49700
Zn692      Zn  0.14711238  0.79501467  0.53130629     1.49400
Zn693      Zn  0.10263246  0.70497392  0.53128738     1.49100
Zn694      Zn  0.16635585  0.72642921  0.96554432     1.49500
O695        O  0.12487934  0.75000053  0.00025371    -1.83100
O696        O  0.05817739  0.82732899  0.98328633    -0.73800
O697        O  0.13360296  0.78383697  0.58657219    -0.73600
O698        O  0.03585876  0.71755123  0.52655453    -0.73100
O699        O  0.11406621  0.85155793  0.51769355    -0.73800
O700        O  0.03601975  0.73390472  0.96662438    -0.73400
O701        O  0.11614325  0.71611760  0.58656458    -0.74000
O702        O  0.19156642  0.67267113  0.98326007    -0.73400
O703        O  0.21388980  0.78245497  0.52658789    -0.74100
O704        O  0.13565942  0.64843227  0.51764089    -0.73500
O705        O  0.21375408  0.76610407  0.96665704    -0.74000
O706        O  0.14546181  0.72132468  0.91253570    -0.73900
O707        O  0.10431452  0.77873299  0.91254115    -0.73700
C708        C  0.07598746  0.85645979  0.00201786     0.78100
C709        C  0.12487388  0.74997482  0.60412375     0.78600
C710        C  0.01842165  0.73640299  0.99853877     0.77600
C711        C  0.17373914  0.64353048  0.00196795     0.78000
C712        C  0.23133874  0.76360537  0.99857747     0.79100
C713        C  0.12488788  0.75003112  0.89516928     0.78100
Zn714      Zn  0.41515636  0.72623079  0.53545240     1.49700
Zn715      Zn  0.35326881  0.70467203  0.96897723     1.49400
Zn716      Zn  0.33462853  0.77382107  0.53544536     1.49100
Zn717      Zn  0.39648790  0.79534008  0.96895081     1.49500
O718        O  0.37488654  0.75001329  0.99968883    -1.83100
O719        O  0.44131917  0.67261243  0.51979969    -0.73800
O720        O  0.28648842  0.71626462  0.97550066    -0.73600
O721        O  0.35751004  0.78044607  0.58731270    -0.73100
O722        O  0.38826528  0.64891620  0.98220372    -0.73800
O723        O  0.39228430  0.71966955  0.58732939    -0.73400
O724        O  0.28766404  0.73359075  0.53533852    -0.74000
O725        O  0.36149358  0.85110294  0.98215447    -0.73400
O726        O  0.36548753  0.71629032  0.91329871    -0.74100
O727        O  0.30844478  0.82740829  0.51975416    -0.73500
O728        O  0.38422755  0.78369825  0.91328869    -0.74000
O729        O  0.46327341  0.78374335  0.97544922    -0.73900
O730        O  0.46212133  0.76645949  0.53529692    -0.73700
C731        C  0.42514903  0.64373835  0.99981063     0.78100
C732        C  0.26954197  0.73552188  0.00356690     0.78600
C733        C  0.37489127  0.75006076  0.60469034     0.77600
C734        C  0.32460522  0.85627638  0.99975400     0.78000
C735        C  0.37485026  0.74999342  0.89567786     0.79100
C736        C  0.48022678  0.76449901  0.00352055     0.78100
Zn737      Zn  0.95601360  0.48291883  0.28385382     1.49700
Zn738      Zn  0.98029335  0.04382161  0.21646401     1.49400
Zn739      Zn  0.54913268  0.01635013  0.28124402     1.49100
Zn740      Zn  0.51974605  0.45575292  0.21538737     1.49500
O741        O  0.50119486  0.99984606  0.24954362    -1.83100
O742        O  0.91050804  0.52344037  0.27432119    -0.73800
O743        O  0.01421287  0.09894813  0.23203616    -0.73600
O744        O  0.53877751  0.01322281  0.33671862    -0.73100
O745        O  0.91275756  0.02850573  0.21355072    -0.73800
O746        O  0.97100991  0.48677387  0.33779405    -0.73400
O747        O  0.57099404  0.07282795  0.26506915    -0.74000
O748        O  0.58730838  0.47048804  0.20871826    -0.73400
O749        O  0.99843998  0.03455117  0.16297240    -0.74100
O750        O  0.59152223  0.97385503  0.26925528    -0.73500
O751        O  0.49845462  0.46512982  0.16274697    -0.74000
O752        O  0.48602748  0.40116571  0.23272634    -0.73900
O753        O  0.93365408  0.42585962  0.27129370    -0.73700
C754        C  0.89398291  0.01455683  0.24294828     0.78100
C755        C  0.55274741  0.10278835  0.24734851     0.78600
C756        C  0.00528218  0.49988299  0.35453477     0.77600
C757        C  0.60668820  0.48429789  0.23781407     0.78000
C758        C  0.49823613  0.99991252  0.14538536     0.79100
C759        C  0.94979455  0.39645162  0.25156480     0.78100
Zn760      Zn  0.70057743  0.48364159  0.28118655     1.49700
Zn761      Zn  0.79365465  0.01712826  0.28379565     1.49400
Zn762      Zn  0.76943830  0.45620268  0.21641499     1.49100
Zn763      Zn  0.72990387  0.04426615  0.21532549     1.49500
O764        O  0.74849235  0.50017666  0.24947559    -1.83100
O765        O  0.71094229  0.48673522  0.33666116    -0.73800
O766        O  0.83917718  0.97661578  0.27430072    -0.73600
O767        O  0.73553428  0.40106211  0.23199099    -0.73100
O768        O  0.77866034  0.01329315  0.33773536    -0.73800
O769        O  0.67872576  0.42717067  0.26499538    -0.73400
O770        O  0.83697091  0.47155027  0.21353049    -0.74000
O771        O  0.75115180  0.03487386  0.16267387    -0.73400
O772        O  0.81600843  0.07418030  0.27122500    -0.74100
O773        O  0.75131977  0.46545040  0.16291362    -0.73500
O774        O  0.76364170  0.09886292  0.23264431    -0.74000
O775        O  0.66233343  0.02952209  0.20869913    -0.73900
O776        O  0.65817516  0.52613761  0.26923782    -0.73700
C777        C  0.74441437  0.50012739  0.35447725     0.78100
C778        C  0.85572472  0.48549999  0.24293747     0.78600
C779        C  0.69699281  0.39721208  0.24728935     0.77600
C780        C  0.75144975  0.50008605  0.14532070     0.78000
C781        C  0.79987178  0.10358305  0.25148802     0.79100
C782        C  0.64298058  0.01570341  0.23780468     0.78100
Zn783      Zn  0.66633748  0.27360807  0.28418880     1.51300
Zn784      Zn  0.60262205  0.29500705  0.21843309     1.49400
Zn785      Zn  0.64712445  0.20496874  0.21844881     1.49100
Zn786      Zn  0.58341521  0.22640945  0.28419865     1.49500
O787        O  0.62487476  0.24999956  0.24948391    -1.83100
O788        O  0.69155360  0.32735355  0.26644384    -0.73800
O789        O  0.61612885  0.28383232  0.16316646    -0.73600
O790        O  0.71389732  0.21754386  0.22317598    -0.73100
O791        O  0.63565462  0.35156367  0.23203570    -0.73800
O792        O  0.71373132  0.23392341  0.28310033    -0.73400
O793        O  0.63361961  0.21611913  0.16317279    -0.74000
O794        O  0.55821127  0.17264793  0.26648978    -0.73400
O795        O  0.53585119  0.28241558  0.22316041    -0.74100
O796        O  0.61409225  0.14841959  0.23207400    -0.73500
O797        O  0.53598576  0.26605558  0.28309152    -0.74000
O798        O  0.60432292  0.22131395  0.33720446    -0.73900
O799        O  0.64543563  0.27874201  0.33719470    -0.73700
C800        C  0.67373368  0.35647763  0.24770821     0.78100
C801        C  0.62487387  0.24997409  0.14561433     0.78600
C802        C  0.73132474  0.23641653  0.25118356     0.77600
C803        C  0.57602014  0.14351533  0.24775915     0.78000
C804        C  0.51839971  0.26356686  0.25117071     0.79100
C805        C  0.62488119  0.25003038  0.35456865     0.78100
Zn806      Zn  0.83457315  0.22624183  0.21427291     1.49700
Zn807      Zn  0.91510460  0.27381883  0.21430002     1.49400
Zn808      Zn  0.85322730  0.29535291  0.28077251     1.49100
Zn809      Zn  0.89643688  0.20467263  0.28075647     1.49500
O810        O  0.87483150  0.25001819  0.25004515    -1.83100
O811        O  0.85747574  0.21966737  0.16240769    -0.73800
O812        O  0.94128759  0.32740608  0.22999309    -0.73600
O813        O  0.78644567  0.28378324  0.27425946    -0.73100
O814        O  0.89223439  0.28044879  0.16242884    -0.73800
O815        O  0.78761346  0.26648091  0.21441628    -0.73400
O816        O  0.88821400  0.35111407  0.26756216    -0.74000
O817        O  0.88419873  0.21629074  0.33643007    -0.73400
O818        O  0.96206385  0.23358001  0.21440841    -0.74100
O819        O  0.86547000  0.28370392  0.33643870    -0.73500
O820        O  0.96322197  0.21625712  0.27424733    -0.74000
O821        O  0.86143894  0.14892264  0.26751746    -0.73900
O822        O  0.80839426  0.17263157  0.22991686    -0.73700
C823        C  0.87486630  0.25006000  0.14504872     0.78100
C824        C  0.92510920  0.35628384  0.24997300     0.78600
C825        C  0.76950371  0.26452644  0.24619172     0.77600
C826        C  0.87483698  0.24999484  0.35405000     0.78000
C827        C  0.98018211  0.23550391  0.24618153     0.79100
C828        C  0.82455831  0.14375219  0.24990432     0.78100
Zn829      Zn  0.54911659  0.48360523  0.46850777     1.49700
Zn830      Zn  0.51980073  0.04424237  0.03436437     1.49400
Zn831      Zn  0.95605546  0.01711702  0.46589745     1.49100
Zn832      Zn  0.98026062  0.45617292  0.03327997     1.49500
O833        O  0.00120723  0.00014917  0.00022069    -1.83100
O834        O  0.59150447  0.52611642  0.48044334    -0.73800
O835        O  0.48606868  0.09884242  0.01705244    -0.73600
O836        O  0.97105368  0.01329541  0.41196014    -0.73100
O837        O  0.58736956  0.02950874  0.04098300    -0.73800
O838        O  0.53874787  0.48667876  0.41303192    -0.73400
O839        O  0.93369247  0.07416697  0.47848051    -0.74000
O840        O  0.91272619  0.47149777  0.03614207    -0.73400
O841        O  0.49856354  0.03485793  0.08701739    -0.74100
O842        O  0.91054405  0.97659236  0.47537224    -0.73500
O843        O  0.99835234  0.46543404  0.08678768    -0.74000
O844        O  0.01417465  0.40103561  0.01771875    -0.73900
O845        O  0.57098183  0.42714541  0.48471563    -0.73700
C846        C  0.60671228  0.01568809  0.01187373     0.78100
C847        C  0.94983359  0.10356682  0.99821699     0.78600
C848        C  0.00528635  0.00009997  0.39521695     0.77600
C849        C  0.89398354  0.48545985  0.00673410     0.78000
C850        C  0.99824178  0.00007324  0.10437511     0.79100
C851        C  0.55271901  0.39718880  0.00242580     0.78100
Zn852      Zn  0.76942891  0.04380138  0.03322389     1.49700
Zn853      Zn  0.72993783  0.45573951  0.03430862     1.49400
Zn854      Zn  0.70057490  0.01637291  0.46845457     1.49100
Zn855      Zn  0.79366560  0.48289162  0.46583817     1.49500
O856        O  0.74849866  0.99983485  0.50015463    -1.83100
O857        O  0.75128834  0.03455128  0.08671766    -0.73800
O858        O  0.66237224  0.47045646  0.04095608    -0.73600
O859        O  0.67872165  0.07284187  0.48465981    -0.73100
O860        O  0.75120025  0.46512936  0.08695603    -0.73800
O861        O  0.73554419  0.09894306  0.01765091    -0.73400
O862        O  0.65819023  0.97386751  0.48041808    -0.74000
O863        O  0.77866829  0.48674712  0.41189970    -0.73400
O864        O  0.76367540  0.40115285  0.01699166    -0.74100
O865        O  0.71093678  0.01328268  0.41297717    -0.73500
O866        O  0.81602979  0.42583718  0.47840385    -0.74000
O867        O  0.83918958  0.52339505  0.47535438    -0.73900
O868        O  0.83695386  0.02846023  0.03612569    -0.73700
C869        C  0.75145446  0.99991618  0.10431059     0.78100
C870        C  0.64300901  0.48428801  0.51185985     0.78600
C871        C  0.69699710  0.10279647  0.50236458     0.77600
C872        C  0.74441552  0.99990488  0.39515966     0.78000
C873        C  0.79990503  0.39643681  0.49814902     0.79100
C874        C  0.85572151  0.01451150  0.50672524     0.78100
Zn875      Zn  0.58341005  0.27359034  0.46554473     1.49700
Zn876      Zn  0.64711230  0.29501471  0.03130627     1.49400
Zn877      Zn  0.60263238  0.20497396  0.03128735     1.49100
Zn878      Zn  0.66635605  0.22642926  0.46554429     1.49500
O879        O  0.62487938  0.25000059  0.50025365    -1.83100
O880        O  0.55817756  0.32732908  0.48328628    -0.73800
O881        O  0.63360284  0.28383703  0.08657216    -0.73600
O882        O  0.53585868  0.21755128  0.02655447    -0.73100
O883        O  0.61406620  0.35155800  0.01769365    -0.73800
O884        O  0.53601971  0.23390476  0.46662442    -0.73400
O885        O  0.61614341  0.21611760  0.08656452    -0.74000
O886        O  0.69156654  0.17267112  0.48326009    -0.73400
O887        O  0.71388973  0.28245502  0.02658790    -0.74100
O888        O  0.63565942  0.14843229  0.01764084    -0.73500
O889        O  0.71375422  0.26610417  0.46665702    -0.74000
O890        O  0.64546176  0.22132468  0.41253569    -0.73900
O891        O  0.60431465  0.27873312  0.41254116    -0.73700
C892        C  0.57598758  0.35645983  0.50201787     0.78100
C893        C  0.62487392  0.24997486  0.10412371     0.78600
C894        C  0.51842173  0.23640308  0.49853887     0.77600
C895        C  0.67373920  0.14353048  0.50196796     0.78000
C896        C  0.73133879  0.26360540  0.49857747     0.79100
C897        C  0.62488790  0.25003119  0.39516929     0.78100
Zn898      Zn  0.91515654  0.22623084  0.03545238     1.49700
Zn899      Zn  0.85326874  0.20467206  0.46897721     1.49400
Zn900      Zn  0.83462848  0.27382112  0.03544535     1.49100
Zn901      Zn  0.89648786  0.29534012  0.46895079     1.49500
O902        O  0.87488653  0.25001331  0.49968880    -1.83100
O903        O  0.94131916  0.17261246  0.01979963    -0.73800
O904        O  0.78648837  0.21626466  0.47550065    -0.73600
O905        O  0.85751029  0.28044609  0.08731267    -0.73100
O906        O  0.88826517  0.14891612  0.48220372    -0.73800
O907        O  0.89228423  0.21966941  0.08732940    -0.73400
O908        O  0.78766412  0.23359080  0.03533849    -0.74000
O909        O  0.86149357  0.35110295  0.48215460    -0.73400
O910        O  0.86548765  0.21629028  0.41329875    -0.74100
O911        O  0.80844484  0.32740837  0.01975430    -0.73500
O912        O  0.88422767  0.28369823  0.41328867    -0.74000
O913        O  0.96327354  0.28374341  0.47544923    -0.73900
O914        O  0.96212147  0.26645957  0.03529693    -0.73700
C915        C  0.92514895  0.14373834  0.49981062     0.78100
C916        C  0.76954195  0.23552188  0.50356692     0.78600
C917        C  0.87489138  0.25006073  0.10469036     0.77600
C918        C  0.82460514  0.35627634  0.49975408     0.78000
C919        C  0.87485033  0.24999335  0.39567789     0.79100
C920        C  0.98022690  0.26449910  0.50352057     0.78100
Zn921      Zn  0.95601346  0.48291884  0.78385386     1.49700
Zn922      Zn  0.98029324  0.04382160  0.71646405     1.49400
Zn923      Zn  0.54913257  0.01635013  0.78124404     1.49100
Zn924      Zn  0.51974595  0.45575292  0.71538739     1.49500
O925        O  0.50119477  0.99984606  0.74954363    -1.83100
O926        O  0.91050793  0.52344055  0.77432122    -0.73800
O927        O  0.01421291  0.09894809  0.73203618    -0.73600
O928        O  0.53877747  0.01322285  0.83671863    -0.73100
O929        O  0.91275759  0.02850569  0.71355078    -0.73800
O930        O  0.97100980  0.48677386  0.83779412    -0.73400
O931        O  0.57099411  0.07282804  0.76506916    -0.74000
O932        O  0.58730839  0.47048796  0.70871819    -0.73400
O933        O  0.99843981  0.03455117  0.66297239    -0.74100
O934        O  0.59152232  0.97385507  0.76925531    -0.73500
O935        O  0.49845472  0.46512991  0.66274697    -0.74000
O936        O  0.48602738  0.40116570  0.73272614    -0.73900
O937        O  0.93365416  0.42585960  0.77129375    -0.73700
C938        C  0.89398288  0.01455684  0.74294833     0.78100
C939        C  0.55274746  0.10278841  0.74734850     0.78600
C940        C  0.00528211  0.49988296  0.85453481     0.77600
C941        C  0.60668823  0.48429790  0.73781396     0.78000
C942        C  0.49823604  0.99991249  0.64538533     0.79100
C943        C  0.94979458  0.39645165  0.75156474     0.78100
Zn944      Zn  0.70057731  0.48364159  0.78118656     1.49700
Zn945      Zn  0.79365479  0.01712826  0.78379569     1.49400
Zn946      Zn  0.76943818  0.45620266  0.71641503     1.49100
Zn947      Zn  0.72990378  0.04426614  0.71532530     1.49500
O948        O  0.74849235  0.50017668  0.74947556    -1.83100
O949        O  0.71094231  0.48673518  0.83666112    -0.73800
O950        O  0.83917716  0.97661575  0.77430072    -0.73600
O951        O  0.73553415  0.40106213  0.73199102    -0.73100
O952        O  0.77866029  0.01329318  0.83773538    -0.73800
O953        O  0.67872561  0.42717066  0.76499542    -0.73400
O954        O  0.83697081  0.47155027  0.71353052    -0.74000
O955        O  0.75115197  0.03487385  0.66267386    -0.73400
O956        O  0.81600850  0.07418031  0.77122498    -0.74100
O957        O  0.75131991  0.46545041  0.66291363    -0.73500
O958        O  0.76364158  0.09886286  0.73264437    -0.74000
O959        O  0.66233347  0.02952201  0.70869897    -0.73900
O960        O  0.65817513  0.52613766  0.76923764    -0.73700
C961        C  0.74441439  0.50012741  0.85447720     0.78100
C962        C  0.85572467  0.48549999  0.74293749     0.78600
C963        C  0.69699270  0.39721208  0.74728940     0.77600
C964        C  0.75144994  0.50008603  0.64532072     0.78000
C965        C  0.79987169  0.10358304  0.75148804     0.79100
C966        C  0.64298062  0.01570337  0.73780457     0.78100
Zn967      Zn  0.66633762  0.27360805  0.78418883     1.51300
Zn968      Zn  0.60262193  0.29500704  0.71843312     1.49400
Zn969      Zn  0.64712433  0.20496874  0.71844884     1.49100
Zn970      Zn  0.58341510  0.22640945  0.78419866     1.49500
O971        O  0.62487467  0.24999957  0.74948397    -1.83100
O972        O  0.69155370  0.32735356  0.76644387    -0.73800
O973        O  0.61612893  0.28383230  0.66316650    -0.73600
O974        O  0.71389720  0.21754388  0.72317601    -0.73100
O975        O  0.63565465  0.35156359  0.73203573    -0.73800
O976        O  0.71373142  0.23392336  0.78310037    -0.73400
O977        O  0.63361969  0.21611911  0.66317282    -0.74000
O978        O  0.55821129  0.17264804  0.76648959    -0.73400
O979        O  0.53585112  0.28241563  0.72316041    -0.74100
O980        O  0.61409236  0.14841957  0.73207399    -0.73500
O981        O  0.53598584  0.26605558  0.78309151    -0.74000
O982        O  0.60432286  0.22131397  0.83720441    -0.73900
O983        O  0.64543559  0.27874204  0.83719469    -0.73700
C984        C  0.67373368  0.35647761  0.74770827     0.78100
C985        C  0.62487392  0.24997406  0.64561436     0.78600
C986        C  0.73132471  0.23641653  0.75118356     0.77600
C987        C  0.57602018  0.14351540  0.74775902     0.78000
C988        C  0.51839976  0.26356683  0.75117070     0.79100
C989        C  0.62488121  0.25003034  0.85456862     0.78100
Zn990      Zn  0.83457303  0.22624183  0.71427293     1.49700
Zn991      Zn  0.91510475  0.27381880  0.71430003     1.49400
Zn992      Zn  0.85322718  0.29535290  0.78077252     1.49100
Zn993      Zn  0.89643679  0.20467261  0.78075649     1.49500
O994        O  0.87483157  0.25001819  0.75004517    -1.83100
O995        O  0.85747561  0.21966736  0.66240761    -0.73800
O996        O  0.94128749  0.32740616  0.72999292    -0.73600
O997        O  0.78644554  0.28378325  0.77425952    -0.73100
O998        O  0.89223432  0.28044877  0.66242890    -0.73800
O999        O  0.78761351  0.26648112  0.71441633    -0.73400
O1000       O  0.88821410  0.35111404  0.76756224    -0.74000
O1001       O  0.88419888  0.21629074  0.83643006    -0.73400
O1002       O  0.96206406  0.23358000  0.71440833    -0.74100
O1003       O  0.86546989  0.28370384  0.83643858    -0.73500
O1004       O  0.96322203  0.21625710  0.77424727    -0.74000
O1005       O  0.86143886  0.14892264  0.76751732    -0.73900
O1006       O  0.80839403  0.17263158  0.72991688    -0.73700
C1007       C  0.87486625  0.25006000  0.64504871     0.78100
C1008       C  0.92510921  0.35628385  0.74997293     0.78600
C1009       C  0.76950366  0.26452650  0.74619172     0.77600
C1010       C  0.87483701  0.24999483  0.85404994     0.78000
C1011       C  0.98018225  0.23550387  0.74618148     0.79100
C1012       C  0.82455817  0.14375220  0.74990430     0.78100
Zn1013     Zn  0.54911674  0.48360525  0.96850780     1.49700
Zn1014     Zn  0.51980084  0.04424235  0.53436438     1.49400
Zn1015     Zn  0.95605537  0.01711702  0.96589749     1.49100
Zn1016     Zn  0.98026049  0.45617290  0.53327997     1.49500
O1017       O  0.00120723  0.00014913  0.50022060    -1.83100
O1018       O  0.59150456  0.52611645  0.98044331    -0.73800
O1019       O  0.48606877  0.09884239  0.51705239    -0.73600
O1020       O  0.97105379  0.01329539  0.91196019    -0.73100
O1021       O  0.58736950  0.02950870  0.54098303    -0.73800
O1022       O  0.53874807  0.48667898  0.91303194    -0.73400
O1023       O  0.93369232  0.07416696  0.97848054    -0.74000
O1024       O  0.91272607  0.47149773  0.53614211    -0.73400
O1025       O  0.49856348  0.03485800  0.58701737    -0.74100
O1026       O  0.91054410  0.97659233  0.97537226    -0.73500
O1027       O  0.99835227  0.46543407  0.58678760    -0.74000
O1028       O  0.01417478  0.40103564  0.51771879    -0.73900
O1029       O  0.57098174  0.42714539  0.98471565    -0.73700
C1030       C  0.60671223  0.01568804  0.51187376     0.78100
C1031       C  0.94983368  0.10356685  0.49821697     0.78600
C1032       C  0.00528643  0.00009993  0.89521697     0.77600
C1033       C  0.89398354  0.48545975  0.50673407     0.78000
C1034       C  0.99824183  0.00007331  0.60437506     0.79100
C1035       C  0.55271913  0.39718881  0.50242581     0.78100
Zn1036     Zn  0.76942902  0.04380138  0.53322392     1.49700
Zn1037     Zn  0.72993774  0.45573949  0.53430865     1.49400
Zn1038     Zn  0.70057479  0.01637290  0.96845460     1.49100
Zn1039     Zn  0.79366546  0.48289161  0.96583817     1.49500
O1040       O  0.74849862  0.99983480  0.00015463    -1.83100
O1041       O  0.75128824  0.03455127  0.58671769    -0.73800
O1042       O  0.66237227  0.47045648  0.54095608    -0.73600
O1043       O  0.67872154  0.07284188  0.98465984    -0.73100
O1044       O  0.75120014  0.46512941  0.58695606    -0.73800
O1045       O  0.73554427  0.09894306  0.51765092    -0.73400
O1046       O  0.65819035  0.97386748  0.98041810    -0.74000
O1047       O  0.77866833  0.48674715  0.91189961    -0.73400
O1048       O  0.76367547  0.40115286  0.51699171    -0.74100
O1049       O  0.71093673  0.01328262  0.91297720    -0.73500
O1050       O  0.81602961  0.42583714  0.97840371    -0.74000
O1051       O  0.83918943  0.52339504  0.97535448    -0.73900
O1052       O  0.83695379  0.02846022  0.53612563    -0.73700
C1053       C  0.75145439  0.99991618  0.60431062     0.78100
C1054       C  0.64300897  0.48428803  0.01185987     0.78600
C1055       C  0.69699703  0.10279648  0.00236455     0.77600
C1056       C  0.74441547  0.99990487  0.89515964     0.78000
C1057       C  0.79990493  0.39643678  0.99814898     0.79100
C1058       C  0.85572158  0.01451153  0.00672527     0.78100
Zn1059     Zn  0.58341018  0.27359035  0.96554475     1.49700
Zn1060     Zn  0.64711245  0.29501471  0.53130631     1.49400
Zn1061     Zn  0.60263251  0.20497396  0.53128717     1.49100
Zn1062     Zn  0.66635591  0.22642925  0.96554433     1.49500
O1063       O  0.62487925  0.25000055  0.00025370    -1.83100
O1064       O  0.55817747  0.32732903  0.98328633    -0.73800
O1065       O  0.63360280  0.28383701  0.58657219    -0.73600
O1066       O  0.53585869  0.21755123  0.52655450    -0.73100
O1067       O  0.61406623  0.35155796  0.51769373    -0.73800
O1068       O  0.53601982  0.23390478  0.96662438    -0.73400
O1069       O  0.61614335  0.21611759  0.58656450    -0.74000
O1070       O  0.69156647  0.17267116  0.98326011    -0.73400
O1071       O  0.71388987  0.28245502  0.52658790    -0.74100
O1072       O  0.63565952  0.14843230  0.51764086    -0.73500
O1073       O  0.71375409  0.26610413  0.96665705    -0.74000
O1074       O  0.64546190  0.22132471  0.91253570    -0.73900
O1075       O  0.60431461  0.27873303  0.91254115    -0.73700
C1076       C  0.57598750  0.35645983  0.00201787     0.78100
C1077       C  0.62487389  0.24997483  0.60412372     0.78600
C1078       C  0.51842172  0.23640304  0.99853878     0.77600
C1079       C  0.67373913  0.14353049  0.00196796     0.78000
C1080       C  0.73133870  0.26360539  0.99857749     0.79100
C1081       C  0.62488795  0.25003115  0.89516928     0.78100
Zn1082     Zn  0.91515641  0.22623084  0.53545241     1.49700
Zn1083     Zn  0.85326886  0.20467205  0.96897723     1.49400
Zn1084     Zn  0.83462860  0.27382111  0.53544536     1.49100
Zn1085     Zn  0.89648771  0.29534010  0.96895081     1.49500
O1086       O  0.87488645  0.25001332  0.99968884    -1.83100
O1087       O  0.94131900  0.17261245  0.51979967    -0.73800
O1088       O  0.78648834  0.21626461  0.97550065    -0.73600
O1089       O  0.85751012  0.28044616  0.58731273    -0.73100
O1090       O  0.88826528  0.14891615  0.98220373    -0.73800
O1091       O  0.89228415  0.21966954  0.58732939    -0.73400
O1092       O  0.78766408  0.23359079  0.53533852    -0.74000
O1093       O  0.86149342  0.35110292  0.98215442    -0.73400
O1094       O  0.86548756  0.21629028  0.91329873    -0.74100
O1095       O  0.80844470  0.32740828  0.51975411    -0.73500
O1096       O  0.88422754  0.28369822  0.91328867    -0.74000
O1097       O  0.96327340  0.28374340  0.97544922    -0.73900
O1098       O  0.96212140  0.26645954  0.53529692    -0.73700
C1099       C  0.92514903  0.14373835  0.99981063     0.78100
C1100       C  0.76954195  0.23552192  0.00356690     0.78600
C1101       C  0.87489130  0.25006081  0.60469038     0.77600
C1102       C  0.82460514  0.35627637  0.99975408     0.78000
C1103       C  0.87485024  0.24999336  0.89567786     0.79100
C1104       C  0.98022683  0.26449906  0.00352055     0.78100
Zn1105     Zn  0.95601356  0.98291879  0.28385382     1.49700
Zn1106     Zn  0.98029332  0.54382159  0.21646402     1.49400
Zn1107     Zn  0.54913262  0.51635010  0.28124401     1.49100
Zn1108     Zn  0.51974602  0.95575314  0.21538737     1.49500
O1109       O  0.50119475  0.49984601  0.24954359    -1.83100
O1110       O  0.91050806  0.02344040  0.27432119    -0.73800
O1111       O  0.01421298  0.59894812  0.23203611    -0.73600
O1112       O  0.53877751  0.51322280  0.33671862    -0.73100
O1113       O  0.91275747  0.52850593  0.21355073    -0.73800
O1114       O  0.97100992  0.98677390  0.33779405    -0.73400
O1115       O  0.57099404  0.57282801  0.26506918    -0.74000
O1116       O  0.58730838  0.97048804  0.20871819    -0.73400
O1117       O  0.99843988  0.53455119  0.16297242    -0.74100
O1118       O  0.59152228  0.47385507  0.26925538    -0.73500
O1119       O  0.49845482  0.96512982  0.16274697    -0.74000
O1120       O  0.48602743  0.90116589  0.23272631    -0.73900
O1121       O  0.93365403  0.92585960  0.27129369    -0.73700
C1122       C  0.89398290  0.51455686  0.24294827     0.78100
C1123       C  0.55274741  0.60278843  0.24734856     0.78600
C1124       C  0.00528217  0.99988307  0.35453477     0.77600
C1125       C  0.60668819  0.98429788  0.23781401     0.78000
C1126       C  0.49823614  0.49991252  0.14538537     0.79100
C1127       C  0.94979459  0.89645165  0.25156480     0.78100
Zn1128     Zn  0.70057739  0.98364156  0.28118655     1.49700
Zn1129     Zn  0.79365460  0.51712822  0.28379565     1.49400
Zn1130     Zn  0.76943826  0.95620266  0.21641499     1.49100
Zn1131     Zn  0.72990382  0.54426611  0.21532549     1.49500
O1132       O  0.74849237  0.00017667  0.24947560    -1.83100
O1133       O  0.71094230  0.98673522  0.33666117    -0.73800
O1134       O  0.83917720  0.47661582  0.27430072    -0.73600
O1135       O  0.73553425  0.90106209  0.23199099    -0.73100
O1136       O  0.77866033  0.51329311  0.33773537    -0.73800
O1137       O  0.67872571  0.92717063  0.26499538    -0.73400
O1138       O  0.83697082  0.97155046  0.21353047    -0.74000
O1139       O  0.75115174  0.53487375  0.16267389    -0.73400
O1140       O  0.81600838  0.57418026  0.27122500    -0.74100
O1141       O  0.75131972  0.96545052  0.16291364    -0.73500
O1142       O  0.76364165  0.59886288  0.23264431    -0.74000
O1143       O  0.66233338  0.52952205  0.20869913    -0.73900
O1144       O  0.65817517  0.02613762  0.26923782    -0.73700
C1145       C  0.74441438  0.00012745  0.35447725     0.78100
C1146       C  0.85572471  0.98550002  0.24293748     0.78600
C1147       C  0.69699280  0.89721204  0.24728936     0.77600
C1148       C  0.75144983  0.00008609  0.14532071     0.78000
C1149       C  0.79987173  0.60358301  0.25148802     0.79100
C1150       C  0.64298056  0.51570340  0.23780471     0.78100
Zn1151     Zn  0.66633743  0.77360803  0.28418880     1.51300
Zn1152     Zn  0.60262201  0.79500702  0.21843309     1.49400
Zn1153     Zn  0.64712442  0.70496872  0.21844880     1.49100
Zn1154     Zn  0.58341519  0.72640943  0.28419866     1.49500
O1155       O  0.62487471  0.74999952  0.24948391    -1.83100
O1156       O  0.69155360  0.82735351  0.26644389    -0.73800
O1157       O  0.61612877  0.78383231  0.16316646    -0.73600
O1158       O  0.71389724  0.71754405  0.22317593    -0.73100
O1159       O  0.63565470  0.85156360  0.23203564    -0.73800
O1160       O  0.71373131  0.73392338  0.28310031    -0.73400
O1161       O  0.63361980  0.71611918  0.16317278    -0.74000
O1162       O  0.55821122  0.67264808  0.26648974    -0.73400
O1163       O  0.53585121  0.78241559  0.22316039    -0.74100
O1164       O  0.61409221  0.64841964  0.23207401    -0.73500
O1165       O  0.53598595  0.76605557  0.28309149    -0.74000
O1166       O  0.60432287  0.72131391  0.33720446    -0.73900
O1167       O  0.64543558  0.77874197  0.33719470    -0.73700
C1168       C  0.67373371  0.85647758  0.24770822     0.78100
C1169       C  0.62487389  0.74997412  0.14561433     0.78600
C1170       C  0.73132475  0.73641656  0.25118354     0.77600
C1171       C  0.57602011  0.64351543  0.24775917     0.78000
C1172       C  0.51839987  0.76356679  0.25117069     0.79100
C1173       C  0.62488113  0.75003034  0.35456865     0.78100
Zn1174     Zn  0.83457313  0.72624181  0.21427292     1.49700
Zn1175     Zn  0.91510459  0.77381878  0.21430001     1.49400
Zn1176     Zn  0.85322726  0.79535311  0.28077251     1.49100
Zn1177     Zn  0.89643684  0.70467260  0.28075648     1.49500
O1178       O  0.87483158  0.75001820  0.25004517    -1.83100
O1179       O  0.85747574  0.71966734  0.16240768    -0.73800
O1180       O  0.94128756  0.82740606  0.22999308    -0.73600
O1181       O  0.78644565  0.78378325  0.27425950    -0.73100
O1182       O  0.89223439  0.78044877  0.16242886    -0.73800
O1183       O  0.78761359  0.76648108  0.21441632    -0.73400
O1184       O  0.88821401  0.85111413  0.26756214    -0.74000
O1185       O  0.88419864  0.71629083  0.33643010    -0.73400
O1186       O  0.96206401  0.73357999  0.21440837    -0.74100
O1187       O  0.86546998  0.78370406  0.33643874    -0.73500
O1188       O  0.96322188  0.71625732  0.27424736    -0.74000
O1189       O  0.86143889  0.64892261  0.26751745    -0.73900
O1190       O  0.80839420  0.67263153  0.22991686    -0.73700
C1191       C  0.87486635  0.75005997  0.14504872     0.78100
C1192       C  0.92510922  0.85628383  0.24997297     0.78600
C1193       C  0.76950376  0.76452648  0.24619173     0.77600
C1194       C  0.87483693  0.74999492  0.35405005     0.78000
C1195       C  0.98018218  0.73550392  0.24618152     0.79100
C1196       C  0.82455826  0.64375216  0.24990432     0.78100
Zn1197     Zn  0.54911681  0.98360522  0.46850776     1.49700
Zn1198     Zn  0.51980070  0.54424232  0.03436436     1.49400
Zn1199     Zn  0.95605540  0.51711698  0.46589744     1.49100
Zn1200     Zn  0.98026059  0.95617288  0.03327997     1.49500
O1201       O  0.00120725  0.50014915  0.00022068    -1.83100
O1202       O  0.59150450  0.02611648  0.48044334    -0.73800
O1203       O  0.48606882  0.59884242  0.01705236    -0.73600
O1204       O  0.97105370  0.51329557  0.41196012    -0.73100
O1205       O  0.58736949  0.52950870  0.04098300    -0.73800
O1206       O  0.53874797  0.98667896  0.41303192    -0.73400
O1207       O  0.93369240  0.57416694  0.47848052    -0.74000
O1208       O  0.91272615  0.97149770  0.03614208    -0.73400
O1209       O  0.49856353  0.53485799  0.08701738    -0.74100
O1210       O  0.91054405  0.47659216  0.47537226    -0.73500
O1211       O  0.99835233  0.96543398  0.08678767    -0.74000
O1212       O  0.01417473  0.90103559  0.01771880    -0.73900
O1213       O  0.57098182  0.92714535  0.48471563    -0.73700
C1214       C  0.60671230  0.51568807  0.01187375     0.78100
C1215       C  0.94983370  0.60356682  0.99821698     0.78600
C1216       C  0.00528634  0.50009999  0.39521695     0.77600
C1217       C  0.89398357  0.98545977  0.00673410     0.78000
C1218       C  0.99824178  0.50007331  0.10437511     0.79100
C1219       C  0.55271897  0.89718876  0.00242581     0.78100
Zn1220     Zn  0.76942910  0.54380138  0.03322389     1.49700
Zn1221     Zn  0.72993779  0.95573947  0.03430863     1.49400
Zn1222     Zn  0.70057487  0.51637288  0.46845457     1.49100
Zn1223     Zn  0.79366554  0.98289157  0.46583817     1.49500
O1224       O  0.74849863  0.49983481  0.50015465    -1.83100
O1225       O  0.75128828  0.53455132  0.08671769    -0.73800
O1226       O  0.66237218  0.97045642  0.04095608    -0.73600
O1227       O  0.67872163  0.57284185  0.48465983    -0.73100
O1228       O  0.75120024  0.96512933  0.08695606    -0.73800
O1229       O  0.73554433  0.59894318  0.01765084    -0.73400
O1230       O  0.65819029  0.47386750  0.48041808    -0.74000
O1231       O  0.77866826  0.98674712  0.41189969    -0.73400
O1232       O  0.76367538  0.90115280  0.01699165    -0.74100
O1233       O  0.71093677  0.51328258  0.41297716    -0.73500
O1234       O  0.81602974  0.92583717  0.47840384    -0.74000
O1235       O  0.83918940  0.02339500  0.47535442    -0.73900
O1236       O  0.83695386  0.52846022  0.03612572    -0.73700
C1237       C  0.75145435  0.49991614  0.10431059     0.78100
C1238       C  0.64300893  0.98428798  0.51185987     0.78600
C1239       C  0.69699705  0.60279649  0.50236458     0.77600
C1240       C  0.74441552  0.49990478  0.39515966     0.78000
C1241       C  0.79990499  0.89643681  0.49814903     0.79100
C1242       C  0.85572170  0.51451164  0.50672520     0.78100
Zn1243     Zn  0.58341002  0.77359031  0.46554473     1.49700
Zn1244     Zn  0.64711251  0.79501469  0.03130627     1.49400
Zn1245     Zn  0.60263234  0.70497393  0.03128734     1.49100
Zn1246     Zn  0.66635600  0.72642922  0.46554429     1.49500
O1247       O  0.62487932  0.75000053  0.50025369    -1.83100
O1248       O  0.55817750  0.82732903  0.48328628    -0.73800
O1249       O  0.63360284  0.78383700  0.08657214    -0.73600
O1250       O  0.53585864  0.71755125  0.02655447    -0.73100
O1251       O  0.61406618  0.85155795  0.01769364    -0.73800
O1252       O  0.53601983  0.73390471  0.46662443    -0.73400
O1253       O  0.61614336  0.71611758  0.08656454    -0.74000
O1254       O  0.69156648  0.67267110  0.48326009    -0.73400
O1255       O  0.71388981  0.78245497  0.02658791    -0.74100
O1256       O  0.63565937  0.64843224  0.01764084    -0.73500
O1257       O  0.71375418  0.76610411  0.46665702    -0.74000
O1258       O  0.64546171  0.72132464  0.41253569    -0.73900
O1259       O  0.60431460  0.77873308  0.41254116    -0.73700
C1260       C  0.57598753  0.85645979  0.50201787     0.78100
C1261       C  0.62487387  0.74997483  0.10412371     0.78600
C1262       C  0.51842180  0.73640303  0.49853887     0.77600
C1263       C  0.67373912  0.64353046  0.50196795     0.78000
C1264       C  0.73133879  0.76360536  0.49857746     0.79100
C1265       C  0.62488785  0.75003115  0.39516929     0.78100
Zn1266     Zn  0.91515649  0.72623081  0.03545238     1.49700
Zn1267     Zn  0.85326895  0.70467204  0.46897720     1.49400
Zn1268     Zn  0.83462843  0.77382109  0.03544534     1.49100
Zn1269     Zn  0.89648782  0.79534009  0.46895082     1.49500
O1270       O  0.87488651  0.75001329  0.49968881    -1.83100
O1271       O  0.94131914  0.67261244  0.01979968    -0.73800
O1272       O  0.78648845  0.71626460  0.47550066    -0.73600
O1273       O  0.85751019  0.78044611  0.08731270    -0.73100
O1274       O  0.88826537  0.64891626  0.48220369    -0.73800
O1275       O  0.89228425  0.71966950  0.08732937    -0.73400
O1276       O  0.78766409  0.73359075  0.03533849    -0.74000
O1277       O  0.86149357  0.85110298  0.48215455    -0.73400
O1278       O  0.86548764  0.71629028  0.41329877    -0.74100
O1279       O  0.80844479  0.82740832  0.01975409    -0.73500
O1280       O  0.88422761  0.78369822  0.41328882    -0.74000
O1281       O  0.96327351  0.78374335  0.47544924    -0.73900
O1282       O  0.96212142  0.76645953  0.03529692    -0.73700
C1283       C  0.92514907  0.64373836  0.49981063     0.78100
C1284       C  0.76954200  0.73552189  0.50356690     0.78600
C1285       C  0.87489137  0.75006076  0.10469036     0.77600
C1286       C  0.82460517  0.85627636  0.49975408     0.78000
C1287       C  0.87485027  0.74999342  0.39567797     0.79100
C1288       C  0.98022686  0.76449904  0.50352058     0.78100
Zn1289     Zn  0.95601343  0.98291879  0.78385384     1.49700
Zn1290     Zn  0.98029320  0.54382159  0.71646405     1.49400
Zn1291     Zn  0.54913253  0.51635009  0.78124404     1.49100
Zn1292     Zn  0.51974590  0.95575313  0.71538739     1.49500
O1293       O  0.50119474  0.49984599  0.74954362    -1.83100
O1294       O  0.91050794  0.02344042  0.77432126    -0.73800
O1295       O  0.01421286  0.59894806  0.73203618    -0.73600
O1296       O  0.53877747  0.51322283  0.83671863    -0.73100
O1297       O  0.91275753  0.52850587  0.71355076    -0.73800
O1298       O  0.97100996  0.98677386  0.83779399    -0.73400
O1299       O  0.57099406  0.57282800  0.76506918    -0.74000
O1300       O  0.58730839  0.97048798  0.70871821    -0.73400
O1301       O  0.99843976  0.53455127  0.66297237    -0.74100
O1302       O  0.59152236  0.47385510  0.76925529    -0.73500
O1303       O  0.49845468  0.96512983  0.66274693    -0.74000
O1304       O  0.48602732  0.90116587  0.73272613    -0.73900
O1305       O  0.93365417  0.92585954  0.77129375    -0.73700
C1306       C  0.89398289  0.51455687  0.74294830     0.78100
C1307       C  0.55274739  0.60278841  0.74734858     0.78600
C1308       C  0.00528218  0.99988305  0.85453475     0.77600
C1309       C  0.60668822  0.98429789  0.73781397     0.78000
C1310       C  0.49823612  0.49991259  0.64538536     0.79100
C1311       C  0.94979465  0.89645161  0.75156474     0.78100
Zn1312     Zn  0.70057729  0.98364157  0.78118657     1.49700
Zn1313     Zn  0.79365475  0.51712822  0.78379548     1.49400
Zn1314     Zn  0.76943818  0.95620267  0.71641502     1.49100
Zn1315     Zn  0.72990373  0.54426610  0.71532530     1.49500
O1316       O  0.74849240  0.00017671  0.74947562    -1.83100
O1317       O  0.71094227  0.98673517  0.83666117    -0.73800
O1318       O  0.83917716  0.47661580  0.77430073    -0.73600
O1319       O  0.73553413  0.90106221  0.73199096    -0.73100
O1320       O  0.77866034  0.51329315  0.83773529    -0.73800
O1321       O  0.67872569  0.92717067  0.76499549    -0.73400
O1322       O  0.83697089  0.97155040  0.71353049    -0.74000
O1323       O  0.75115191  0.53487376  0.66267389    -0.73400
O1324       O  0.81600851  0.57418026  0.77122495    -0.74100
O1325       O  0.75131986  0.96545051  0.66291367    -0.73500
O1326       O  0.76364159  0.59886282  0.73264436    -0.74000
O1327       O  0.66233345  0.52952198  0.70869891    -0.73900
O1328       O  0.65817516  0.02613768  0.76923769    -0.73700
C1329       C  0.74441432  0.00012747  0.85447725     0.78100
C1330       C  0.85572472  0.98549997  0.74293750     0.78600
C1331       C  0.69699270  0.89721214  0.74728935     0.77600
C1332       C  0.75144994  0.00008608  0.64532073     0.78000
C1333       C  0.79987171  0.60358299  0.75148803     0.79100
C1334       C  0.64298060  0.51570336  0.73780451     0.78100
Zn1335     Zn  0.66633759  0.77360828  0.78418884     1.51300
Zn1336     Zn  0.60262192  0.79500700  0.71843313     1.49400
Zn1337     Zn  0.64712430  0.70496871  0.71844884     1.49100
Zn1338     Zn  0.58341507  0.72640943  0.78419866     1.49500
O1339       O  0.62487478  0.74999957  0.74948398    -1.83100
O1340       O  0.69155369  0.82735371  0.76644391    -0.73800
O1341       O  0.61612887  0.78383232  0.66316650    -0.73600
O1342       O  0.71389712  0.71754411  0.72317599    -0.73100
O1343       O  0.63565462  0.85156360  0.73203572    -0.73800
O1344       O  0.71373137  0.73392344  0.78310038    -0.73400
O1345       O  0.63361963  0.71611913  0.66317282    -0.74000
O1346       O  0.55821123  0.67264813  0.76648959    -0.73400
O1347       O  0.53585125  0.78241554  0.72316041    -0.74100
O1348       O  0.61409230  0.64841955  0.73207406    -0.73500
O1349       O  0.53598580  0.76605556  0.78309152    -0.74000
O1350       O  0.60432281  0.72131393  0.83720440    -0.73900
O1351       O  0.64543553  0.77874202  0.83719470    -0.73700
C1352       C  0.67373366  0.85647768  0.74770824     0.78100
C1353       C  0.62487387  0.74997411  0.64561437     0.78600
C1354       C  0.73132464  0.73641670  0.75118356     0.77600
C1355       C  0.57602013  0.64351541  0.74775911     0.78000
C1356       C  0.51839978  0.76356681  0.75117068     0.79100
C1357       C  0.62488115  0.75003030  0.85456862     0.78100
Zn1358     Zn  0.83457324  0.72624179  0.71427293     1.49700
Zn1359     Zn  0.91510471  0.77381877  0.71429983     1.49400
Zn1360     Zn  0.85322717  0.79535311  0.78077252     1.49100
Zn1361     Zn  0.89643675  0.70467259  0.78075649     1.49500
O1362       O  0.87483158  0.75001824  0.75004517    -1.83100
O1363       O  0.85747560  0.71966731  0.66240760    -0.73800
O1364       O  0.94128761  0.82740610  0.72999292    -0.73600
O1365       O  0.78644568  0.78378320  0.77425953    -0.73100
O1366       O  0.89223425  0.78044875  0.66242884    -0.73800
O1367       O  0.78761353  0.76648105  0.71441633    -0.73400
O1368       O  0.88821413  0.85111405  0.76756216    -0.74000
O1369       O  0.88419876  0.71629077  0.83643006    -0.73400
O1370       O  0.96206402  0.73357995  0.71440830    -0.74100
O1371       O  0.86547012  0.78370400  0.83643858    -0.73500
O1372       O  0.96322192  0.71625729  0.77424731    -0.74000
O1373       O  0.86143884  0.64892260  0.76751732    -0.73900
O1374       O  0.80839404  0.67263155  0.72991688    -0.73700
C1375       C  0.87486620  0.75005997  0.64504869     0.78100
C1376       C  0.92510928  0.85628382  0.74997294     0.78600
C1377       C  0.76950369  0.76452653  0.74619173     0.77600
C1378       C  0.87483702  0.74999488  0.85404994     0.78000
C1379       C  0.98018220  0.73550389  0.74618147     0.79100
C1380       C  0.82455815  0.64375217  0.74990428     0.78100
Zn1381     Zn  0.54911669  0.98360520  0.96850780     1.49700
Zn1382     Zn  0.51980082  0.54424231  0.53436438     1.49400
Zn1383     Zn  0.95605532  0.51711698  0.96589749     1.49100
Zn1384     Zn  0.98026048  0.95617287  0.53327996     1.49500
O1385       O  0.00120721  0.50014912  0.50022058    -1.83100
O1386       O  0.59150442  0.02611644  0.98044333    -0.73800
O1387       O  0.48606870  0.59884236  0.51705238    -0.73600
O1388       O  0.97105382  0.51329555  0.91196020    -0.73100
O1389       O  0.58736965  0.52950870  0.54098304    -0.73800
O1390       O  0.53874809  0.98667895  0.91303193    -0.73400
O1391       O  0.93369249  0.57416695  0.97848050    -0.74000
O1392       O  0.91272620  0.97149775  0.53614207    -0.73400
O1393       O  0.49856342  0.53485798  0.58701737    -0.74100
O1394       O  0.91054393  0.47659236  0.97537223    -0.73500
O1395       O  0.99835222  0.96543406  0.58678758    -0.74000
O1396       O  0.01417473  0.90103560  0.51771879    -0.73900
O1397       O  0.57098169  0.92714535  0.98471565    -0.73700
C1398       C  0.60671233  0.51568807  0.51187375     0.78100
C1399       C  0.94983366  0.60356682  0.49821699     0.78600
C1400       C  0.00528642  0.50009996  0.89521699     0.77600
C1401       C  0.89398356  0.98545981  0.50673408     0.78000
C1402       C  0.99824182  0.50007334  0.60437506     0.79100
C1403       C  0.55271910  0.89718876  0.50242581     0.78100
Zn1404     Zn  0.76942900  0.54380137  0.53322392     1.49700
Zn1405     Zn  0.72993795  0.95573970  0.53430866     1.49400
Zn1406     Zn  0.70057473  0.51637287  0.96845459     1.49100
Zn1407     Zn  0.79366543  0.98289157  0.96583816     1.49500
O1408       O  0.74849854  0.49983483  0.00015463    -1.83100
O1409       O  0.75128820  0.53455136  0.58671772    -0.73800
O1410       O  0.66237228  0.97045648  0.54095608    -0.73600
O1411       O  0.67872158  0.57284186  0.98465990    -0.73100
O1412       O  0.75120013  0.96512934  0.58695610    -0.73800
O1413       O  0.73554424  0.59894316  0.51765091    -0.73400
O1414       O  0.65819019  0.47386748  0.98041809    -0.74000
O1415       O  0.77866827  0.98674716  0.91189961    -0.73400
O1416       O  0.76367544  0.90115287  0.51699171    -0.74100
O1417       O  0.71093674  0.51328252  0.91297716    -0.73500
O1418       O  0.81602956  0.92583714  0.97840369    -0.74000
O1419       O  0.83918947  0.02339499  0.97535447    -0.73900
O1420       O  0.83695393  0.52846025  0.53612562    -0.73700
C1421       C  0.75145440  0.49991621  0.60431062     0.78100
C1422       C  0.64300899  0.98428802  0.01185985     0.78600
C1423       C  0.69699708  0.60279651  0.00236457     0.77600
C1424       C  0.74441551  0.49990479  0.89515960     0.78000
C1425       C  0.79990492  0.89643679  0.99814896     0.79100
C1426       C  0.85572160  0.51451162  0.00672529     0.78100
Zn1427     Zn  0.58341014  0.77359030  0.96554476     1.49700
Zn1428     Zn  0.64711240  0.79501467  0.53130631     1.49400
Zn1429     Zn  0.60263249  0.70497392  0.53128738     1.49100
Zn1430     Zn  0.66635588  0.72642921  0.96554432     1.49500
O1431       O  0.62487938  0.75000053  0.00025371    -1.83100
O1432       O  0.55817742  0.82732899  0.98328633    -0.73800
O1433       O  0.63360275  0.78383699  0.58657218    -0.73600
O1434       O  0.53585879  0.71755124  0.52655453    -0.73100
O1435       O  0.61406618  0.85155792  0.51769373    -0.73800
O1436       O  0.53601977  0.73390473  0.96662438    -0.73400
O1437       O  0.61614331  0.71611757  0.58656458    -0.74000
O1438       O  0.69156641  0.67267113  0.98326011    -0.73400
O1439       O  0.71388984  0.78245497  0.52658790    -0.74100
O1440       O  0.63565945  0.64843227  0.51764089    -0.73500
O1441       O  0.71375410  0.76610408  0.96665705    -0.74000
O1442       O  0.64546184  0.72132467  0.91253570    -0.73900
O1443       O  0.60431455  0.77873299  0.91254115    -0.73700
C1444       C  0.57598746  0.85645978  0.00201788     0.78100
C1445       C  0.62487384  0.74997482  0.60412374     0.78600
C1446       C  0.51842167  0.73640300  0.99853878     0.77600
C1447       C  0.67373909  0.64353047  0.00196797     0.78000
C1448       C  0.73133875  0.76360539  0.99857748     0.79100
C1449       C  0.62488790  0.75003111  0.89516928     0.78100
Zn1450     Zn  0.91515638  0.72623079  0.53545241     1.49700
Zn1451     Zn  0.85326880  0.70467203  0.96897723     1.49400
Zn1452     Zn  0.83462857  0.77382107  0.53544536     1.49100
Zn1453     Zn  0.89648792  0.79534007  0.96895081     1.49500
O1454       O  0.87488643  0.75001329  0.99968883    -1.83100
O1455       O  0.94131920  0.67261243  0.51979969    -0.73800
O1456       O  0.78648830  0.71626456  0.97550066    -0.73600
O1457       O  0.85751007  0.78044612  0.58731272    -0.73100
O1458       O  0.88826529  0.64891622  0.98220372    -0.73800
O1459       O  0.89228410  0.71966949  0.58732938    -0.73400
O1460       O  0.78766407  0.73359075  0.53533852    -0.74000
O1461       O  0.86149359  0.85110298  0.98215447    -0.73400
O1462       O  0.86548751  0.71629031  0.91329871    -0.74100
O1463       O  0.80844482  0.82740829  0.51975416    -0.73500
O1464       O  0.88422753  0.78369824  0.91328869    -0.74000
O1465       O  0.96327343  0.78374335  0.97544922    -0.73900
O1466       O  0.96212135  0.76645949  0.53529693    -0.73700
C1467       C  0.92514904  0.64373835  0.99981062     0.78100
C1468       C  0.76954195  0.73552188  0.00356690     0.78600
C1469       C  0.87489124  0.75006077  0.60469037     0.77600
C1470       C  0.82460520  0.85627638  0.99975402     0.78000
C1471       C  0.87485019  0.74999343  0.89567786     0.79100
C1472       C  0.98022680  0.76449901  0.00352055     0.78100
loop_ 
_geom_bond_atom_site_label_1 
_geom_bond_atom_site_label_2 
_geom_bond_distance 
_geom_bond_site_symmetry_2 
_ccdc_geom_bond_type 
Zn1           O6   1.917       .  S
Zn1          O10   1.985       .  S
Zn1          O17   1.992       .  S
Zn1        O1109   1.914       .  S
Zn2           O7   2.109       .  S
Zn2           O9   2.101       .  S
Zn2          O13   2.012       .  S
Zn2         O741   1.940   1_545  S
Zn3           O8   2.011       .  S
Zn3          O11   2.003       .  S
Zn3          O14   1.913   1_545  S
Zn3           O5   1.914   1_545  S
Zn4          O12   2.109       .  S
Zn4          O15   2.012   1_455  S
Zn4          O16   2.110   1_455  S
Zn4         O373   1.945       .  S
O5        Zn1105   1.914   1_455  S
O5         Zn738   1.940   1_465  S
O5         Zn372   1.945       .  S
O6          C386   1.260       .  A
O7          C755   1.293       .  A
O8         C1124   1.270   1_545  A
O9           C18   1.275       .  A
O10          C20   1.267       .  A
O11          C19   1.272       .  A
O12          C21   1.273       .  A
O13         C758   1.271   1_545  A
O14         C389   1.259       .  A
O15         C390   1.271       .  A
O16         C759   1.295       .  A
O17          C23   1.271       .  A
C18         O374   1.260       .  A
C18         C410   1.482   1_545  S
C19         O743   1.293       .  A
C19          C67   1.477       .  S
C20        O1112   1.270       .  A
C20         C480   1.455       .  S
C21         O382   1.259       .  A
C21         C414   1.485       .  S
C22         O749   1.271   1_565  A
C22         O383   1.271       .  A
C22         C850   1.467   1_565  S
C23         O752   1.295       .  A
C23          C88   1.483       .  S
Zn24         O29   2.011       .  S
Zn24         O33   2.003       .  S
Zn24         O40   1.913       .  S
Zn24         O28   1.914       .  S
Zn25         O30   1.917   1_545  S
Zn25         O32   1.985       .  S
Zn25         O36   1.991       .  S
Zn25        O396   1.914       .  S
Zn26         O31   2.109       .  S
Zn26         O34   2.102       .  S
Zn26         O37   2.012       .  S
Zn26         O28   1.940       .  S
Zn27         O35   2.012       .  S
Zn27         O38   2.110       .  S
Zn27         O39   2.109       .  S
Zn27        O396   1.945       .  S
O28        Zn393   1.914       .  S
O28        Zn395   1.945       .  S
O29          C41   1.270       .  A
O30         C410   1.260       .  A
O31          C43   1.293       .  A
O32         C409   1.267       .  A
O33          C43   1.272       .  A
O34          C42   1.275       .  A
O35         C412   1.271       .  A
O36          C45   1.271       .  A
O37          C44   1.271       .  A
O38          C45   1.295       .  A
O39          C46   1.273       .  A
O40         C414   1.259       .  A
C41         O400   1.267       .  A
C41         C504   1.455       .  S
C42         O398   1.260       .  A
C42         C386   1.482       .  S
C43          C64   1.477       .  S
C44         O403   1.271       .  A
C44         C501   1.467       .  S
C45          C92   1.483       .  S
C46         O408   1.259       .  A
C46         C389   1.485   1_545  S
Zn47         O52   1.979       .  S
Zn47         O56   1.911       .  S
Zn47         O63   2.005       .  S
Zn47         O51   1.918       .  S
Zn48         O53   2.049       .  S
Zn48         O55   2.117       .  S
Zn48         O59   2.065       .  S
Zn48         O51   1.935       .  S
Zn49         O54   2.065       .  S
Zn49         O57   2.050       .  S
Zn49         O60   2.117       .  S
Zn49         O51   1.935       .  S
Zn50         O58   1.979       .  S
Zn50         O61   1.911       .  S
Zn50         O62   2.005       .  S
Zn50         O51   1.918       .  S
O52          C64   1.265       .  A
O53          C65   1.276       .  A
O54          C66   1.282       .  A
O55          C64   1.290       .  A
O56          C66   1.262       .  A
O57          C65   1.276       .  A
O58          C67   1.265       .  A
O59          C68   1.282       .  A
O60          C67   1.290       .  A
O61          C68   1.262       .  A
O62          C69   1.269       .  A
O63          C69   1.269       .  A
C65         C157   1.484       .  S
C66          C89   1.472       .  S
C68         C827   1.472   1_455  S
C69         C161   1.452       .  S
Zn70         O75   1.991       .  S
Zn70         O79   1.913       .  S
Zn70         O86   1.964       .  S
Zn70         O74   1.921       .  S
Zn71         O76   1.964       .  S
Zn71         O78   1.991       .  S
Zn71         O82   1.913       .  S
Zn71         O74   1.921       .  S
Zn72         O77   2.065       .  S
Zn72         O80   2.121       .  S
Zn72         O83   2.059       .  S
Zn72         O74   1.929       .  S
Zn73         O81   2.059       .  S
Zn73         O84   2.065       .  S
Zn73         O85   2.122       .  S
Zn73         O74   1.929       .  S
O75          C87   1.265       .  A
O76          C88   1.264       .  A
O77          C89   1.283       .  A
O78          C87   1.265       .  A
O79          C89   1.263       .  A
O80          C88   1.291       .  A
O81          C90   1.277       .  A
O82          C91   1.263       .  A
O83          C90   1.277       .  A
O84          C91   1.283       .  A
O85          C92   1.291       .  A
O86          C92   1.264       .  A
C87         C181   1.443       .  S
C90         C183   1.489       .  S
C91         C804   1.472       .  S
Zn93         O98   1.913       .  S
Zn93        O102   2.011       .  S
Zn93        O109   2.003       .  S
Zn93       O1385   1.913       .  S
Zn94         O99   2.110   1_455  S
Zn94        O101   2.109       .  S
Zn94        O105   2.012   1_455  S
Zn94        O833   1.945       .  S
Zn95        O100   1.985       .  S
Zn95        O103   1.991       .  S
Zn95        O106   1.917   1_545  S
Zn95        O281   1.914       .  S
Zn96        O104   2.101       .  S
Zn96        O107   2.012       .  S
Zn96        O108   2.109       .  S
Zn96        O465   1.940       .  S
O97       Zn1381   1.913   1_544  S
O97        Zn830   1.945       .  S
O97        Zn279   1.914   1_554  S
O97        Zn464   1.940   1_545  S
O98         C662   1.259       .  A
O99         C847   1.295   1_554  A
O100        C112   1.267       .  A
O101        C110   1.273       .  A
O102       C1216   1.270       .  A
O103        C295   1.271       .  A
O104        C113   1.275       .  A
O105        C850   1.271       .  A
O106        C665   1.260       .  A
O107        C482   1.271       .  A
O108        C851   1.293       .  A
O109        C299   1.272       .  A
C110        O650   1.259   1_554  A
C110        C686   1.485   1_545  S
C111        O835   1.295   1_556  A
C111        O287   1.271       .  A
C111        C363   1.483       .  S
C112       O1206   1.270   1_545  A
C112        C388   1.455   1_545  S
C113        O658   1.260   1_554  A
C113        C690   1.482       .  S
C114        O841   1.271       .  A
C114        O475   1.271   1_545  A
C114        C758   1.467   1_545  S
C115        O844   1.293       .  A
C115        O293   1.272   1_554  A
C115        C340   1.477       .  S
Zn116       O121   2.012       .  S
Zn116       O125   2.109       .  S
Zn116       O132   2.101       .  S
Zn116       O304   1.940   1_545  S
Zn117       O122   2.109       .  S
Zn117       O124   2.012       .  S
Zn117       O128   2.110       .  S
Zn117       O672   1.945       .  S
Zn118       O123   2.003       .  S
Zn118       O126   1.913   1_545  S
Zn118       O129   2.011       .  S
Zn118       O120   1.913   1_545  S
Zn119       O127   1.985       .  S
Zn119       O130   1.991       .  S
Zn119       O131   1.917       .  S
Zn119       O488   1.914       .  S
O120       Zn300   1.940   1_565  S
O120       Zn669   1.945       .  S
O120       Zn487   1.914       .  S
O121        C133   1.271   1_545  A
O122        C318   1.273       .  A
O123        C135   1.272       .  A
O124        C501   1.271       .  A
O125        C319   1.293       .  A
O126        C502   1.259       .  A
O127        C504   1.267       .  A
O128        C321   1.295   1_554  A
O129        C136   1.270   1_545  A
O130        C137   1.271       .  A
O131        C506   1.260       .  A
O132        C322   1.275       .  A
C133        O492   1.271       .  A
C133        C412   1.467   1_565  S
C134        O306   1.273       .  A
C134        O494   1.259       .  A
C134        C662   1.485       .  S
C135        O309   1.293       .  A
C135        C159   1.476       .  S
C136        O495   1.267       .  A
C136        C409   1.455   1_565  S
C137        O312   1.295       .  A
C137        C182   1.483       .  S
C138        O499   1.260       .  A
C138        O316   1.275       .  A
C138        C665   1.482   1_545  S
Zn139       O144   1.979       .  S
Zn139       O148   1.911       .  S
Zn139       O155   2.005       .  S
Zn139       O143   1.918       .  S
Zn140       O145   2.049       .  S
Zn140       O147   2.117       .  S
Zn140       O151   2.065       .  S
Zn140       O327   1.935       .  S
Zn141       O146   2.065       .  S
Zn141       O149   2.050       .  S
Zn141       O152   2.117       .  S
Zn141       O327   1.935       .  S
Zn142       O150   1.979       .  S
Zn142       O153   1.911       .  S
Zn142       O154   2.005       .  S
Zn142       O143   1.918       .  S
O143       Zn324   1.935       .  S
O143       Zn325   1.935       .  S
O144        C156   1.265       .  A
O145        C157   1.276       .  A
O146        C342   1.282   1_554  A
O147        C340   1.290       .  A
O148        C158   1.262       .  A
O149        C157   1.276       .  A
O150        C159   1.265       .  A
O151        C344   1.282   1_554  A
O152        C343   1.290       .  A
O153        C160   1.262       .  A
O154        C161   1.269       .  A
O155        C161   1.269       .  A
C156        O331   1.290       .  A
C156        C299   1.477       .  S
C158        O330   1.282       .  A
C158        C920   1.472   1_455  S
C159        O336   1.290       .  A
C160        O335   1.282       .  A
C160        C180   1.472       .  S
Zn162       O167   1.965       .  S
Zn162       O171   1.991       .  S
Zn162       O178   1.913       .  S
Zn162       O350   1.921   1_554  S
Zn163       O168   2.065       .  S
Zn163       O170   2.121       .  S
Zn163       O174   2.059       .  S
Zn163       O166   1.929       .  S
Zn164       O169   1.991       .  S
Zn164       O172   1.913       .  S
Zn164       O175   1.964       .  S
Zn164       O350   1.921   1_554  S
Zn165       O173   2.121       .  S
Zn165       O176   2.059       .  S
Zn165       O177   2.065       .  S
Zn165       O166   1.929       .  S
O166       Zn346   1.921       .  S
O166       Zn348   1.921       .  S
O167        C363   1.264   1_554  A
O168        C180   1.283       .  A
O169        C181   1.265       .  A
O170        C179   1.291       .  A
O171        C181   1.265       .  A
O172        C364   1.263       .  A
O173        C182   1.291       .  A
O174        C183   1.277       .  A
O175        C366   1.264   1_554  A
O176        C183   1.277       .  A
O177        C184   1.283       .  A
O178        C368   1.263       .  A
C179        O351   1.264       .  A
C179        C295   1.483       .  S
C180        O356   1.263       .  A
C182        O359   1.264       .  A
C184        O362   1.263       .  A
C184        C894   1.472       .  S
Zn185       O190   1.917       .  S
Zn185       O194   1.985       .  S
Zn185       O201   1.992       .  S
Zn185      O1293   1.914       .  S
Zn186       O191   2.109       .  S
Zn186       O193   2.101       .  S
Zn186       O197   2.012       .  S
Zn186       O925   1.940   1_545  S
Zn187       O192   2.011       .  S
Zn187       O195   2.003       .  S
Zn187       O198   1.913   1_545  S
Zn187       O189   1.914   1_545  S
Zn188       O196   2.109       .  S
Zn188       O199   2.012   1_455  S
Zn188       O200   2.110   1_455  S
Zn188       O557   1.945       .  S
O189      Zn1289   1.914   1_455  S
O189       Zn922   1.940   1_465  S
O189       Zn556   1.945       .  S
O190        C570   1.260       .  A
O191        C939   1.293       .  A
O192       C1308   1.270   1_545  A
O193        C202   1.275       .  A
O194        C204   1.267       .  A
O195        C203   1.272       .  A
O196        C205   1.273       .  A
O197        C942   1.271   1_545  A
O198        C573   1.259       .  A
O199        C574   1.271       .  A
O200        C943   1.295       .  A
O201        C207   1.271       .  A
C202        O558   1.260       .  A
C202        C594   1.482   1_545  S
C203        O927   1.293       .  A
C203        C251   1.477       .  S
C204       O1296   1.270       .  A
C204        C664   1.455       .  S
C205        O566   1.259       .  A
C205        C598   1.485       .  S
C206        O933   1.271   1_565  A
C206        O567   1.271       .  A
C206       C1034   1.467   1_565  S
C207        O936   1.295       .  A
C207        C272   1.483       .  S
Zn208       O213   2.011       .  S
Zn208       O217   2.003       .  S
Zn208       O224   1.913       .  S
Zn208       O212   1.914       .  S
Zn209       O214   1.917   1_545  S
Zn209       O216   1.985       .  S
Zn209       O220   1.991       .  S
Zn209       O580   1.914       .  S
Zn210       O215   2.109       .  S
Zn210       O218   2.102       .  S
Zn210       O221   2.012       .  S
Zn210       O212   1.940       .  S
Zn211       O219   2.012       .  S
Zn211       O222   2.110       .  S
Zn211       O223   2.109       .  S
Zn211       O580   1.945       .  S
O212       Zn577   1.914       .  S
O212       Zn579   1.945       .  S
O213        C225   1.270       .  A
O214        C594   1.260       .  A
O215        C227   1.293       .  A
O216        C593   1.267       .  A
O217        C227   1.272       .  A
O218        C226   1.275       .  A
O219        C596   1.271       .  A
O220        C229   1.271       .  A
O221        C228   1.271       .  A
O222        C229   1.295       .  A
O223        C230   1.273       .  A
O224        C598   1.259       .  A
C225        O584   1.267       .  A
C225        C688   1.455       .  S
C226        O582   1.260       .  A
C226        C570   1.482       .  S
C227        C248   1.477       .  S
C228        O587   1.271       .  A
C228        C685   1.467       .  S
C229        C276   1.483       .  S
C230        O592   1.259       .  A
C230        C573   1.485   1_545  S
Zn231       O236   1.979       .  S
Zn231       O240   1.911       .  S
Zn231       O247   2.005       .  S
Zn231       O235   1.918       .  S
Zn232       O237   2.049       .  S
Zn232       O239   2.117       .  S
Zn232       O243   2.065       .  S
Zn232       O235   1.935       .  S
Zn233       O238   2.065       .  S
Zn233       O241   2.050       .  S
Zn233       O244   2.117       .  S
Zn233       O235   1.935       .  S
Zn234       O242   1.979       .  S
Zn234       O245   1.911       .  S
Zn234       O246   2.005       .  S
Zn234       O235   1.918       .  S
O236        C248   1.265       .  A
O237        C249   1.276       .  A
O238        C250   1.282       .  A
O239        C248   1.290       .  A
O240        C250   1.262       .  A
O241        C249   1.276       .  A
O242        C251   1.265       .  A
O243        C252   1.282       .  A
O244        C251   1.290       .  A
O245        C252   1.262       .  A
O246        C253   1.269       .  A
O247        C253   1.269       .  A
C249        C341   1.484       .  S
C250        C273   1.472       .  S
C252       C1011   1.472   1_455  S
C253        C345   1.452       .  S
Zn254       O259   1.991       .  S
Zn254       O263   1.913       .  S
Zn254       O270   1.964       .  S
Zn254       O258   1.921       .  S
Zn255       O260   1.964       .  S
Zn255       O262   1.991       .  S
Zn255       O266   1.913       .  S
Zn255       O258   1.921       .  S
Zn256       O261   2.065       .  S
Zn256       O264   2.121       .  S
Zn256       O267   2.059       .  S
Zn256       O258   1.929       .  S
Zn257       O265   2.059       .  S
Zn257       O268   2.065       .  S
Zn257       O269   2.122       .  S
Zn257       O258   1.929       .  S
O259        C271   1.265       .  A
O260        C272   1.264       .  A
O261        C273   1.283       .  A
O262        C271   1.265       .  A
O263        C273   1.263       .  A
O264        C272   1.291       .  A
O265        C274   1.277       .  A
O266        C275   1.263       .  A
O267        C274   1.277       .  A
O268        C275   1.283       .  A
O269        C276   1.291       .  A
O270        C276   1.264       .  A
C271        C365   1.443       .  S
C274        C367   1.489       .  S
C275        C988   1.472       .  S
Zn277       O282   1.913       .  S
Zn277       O286   2.011       .  S
Zn277       O293   2.003       .  S
Zn277      O1201   1.913   1_556  S
Zn278       O283   2.110   1_455  S
Zn278       O285   2.109       .  S
Zn278       O289   2.012   1_455  S
Zn278      O1017   1.945       .  S
Zn279       O284   1.985       .  S
Zn279       O287   1.991       .  S
Zn279       O290   1.917   1_545  S
Zn280       O288   2.101       .  S
Zn280       O291   2.012       .  S
Zn280       O292   2.109       .  S
Zn280       O649   1.940       .  S
O281      Zn1197   1.913   1_545  S
O281      Zn1014   1.945       .  S
O281       Zn648   1.940   1_545  S
O282        C478   1.259   1_556  A
O283       C1031   1.295       .  A
O284        C296   1.267       .  A
O285        C294   1.273       .  A
O286       C1400   1.270       .  A
O288        C297   1.275       .  A
O289       C1034   1.271       .  A
O290        C481   1.260   1_556  A
O291        C666   1.271       .  A
O292       C1035   1.293       .  A
C294        O466   1.259       .  A
C294        C502   1.485   1_545  S
C295       O1019   1.295       .  A
C296       O1390   1.270   1_545  A
C296        C572   1.455   1_545  S
C297        O474   1.260       .  A
C297        C506   1.482       .  S
C298       O1025   1.271       .  A
C298        O659   1.271   1_545  A
C298        C942   1.467   1_545  S
C299       O1028   1.293       .  A
Zn300       O305   2.012       .  S
Zn300       O309   2.109       .  S
Zn300       O316   2.101       .  S
Zn301       O306   2.109       .  S
Zn301       O308   2.012       .  S
Zn301       O312   2.110       .  S
Zn301       O488   1.945       .  S
Zn302       O307   2.003       .  S
Zn302       O310   1.913   1_545  S
Zn302       O313   2.011       .  S
Zn302       O304   1.913   1_546  S
Zn303       O311   1.985       .  S
Zn303       O314   1.991       .  S
Zn303       O315   1.917       .  S
Zn303       O672   1.914   1_556  S
O304       Zn485   1.945       .  S
O304       Zn671   1.914   1_554  S
O305        C317   1.271   1_545  A
O307        C319   1.272   1_556  A
O308        C685   1.271       .  A
O310        C686   1.259   1_556  A
O311        C688   1.267       .  A
O313        C320   1.270   1_545  A
O314        C321   1.271       .  A
O315        C690   1.260   1_556  A
C317        O676   1.271       .  A
C317        C596   1.467   1_565  S
C318        O678   1.259   1_554  A
C318        C478   1.485       .  S
C319        C343   1.476       .  S
C320        O679   1.267       .  A
C320        C593   1.455   1_565  S
C321        C366   1.483       .  S
C322        O683   1.260   1_554  A
C322        C481   1.481   1_545  S
Zn323       O328   1.979       .  S
Zn323       O332   1.911       .  S
Zn323       O339   2.005       .  S
Zn323       O327   1.918   1_556  S
Zn324       O329   2.049       .  S
Zn324       O331   2.117       .  S
Zn324       O335   2.065       .  S
Zn325       O330   2.065       .  S
Zn325       O333   2.050       .  S
Zn325       O336   2.117       .  S
Zn326       O334   1.979       .  S
Zn326       O337   1.911       .  S
Zn326       O338   2.005       .  S
Zn326       O327   1.918   1_556  S
O328        C340   1.265   1_556  A
O329        C341   1.276       .  A
O332        C342   1.262       .  A
O333        C341   1.276       .  A
O334        C343   1.265   1_556  A
O337        C344   1.262       .  A
O338        C345   1.269       .  A
O339        C345   1.269       .  A
C342       C1104   1.472   1_456  S
C344        C364   1.472   1_556  S
Zn346       O351   1.965       .  S
Zn346       O355   1.991       .  S
Zn346       O362   1.913       .  S
Zn347       O352   2.065       .  S
Zn347       O354   2.121       .  S
Zn347       O358   2.059       .  S
Zn347       O350   1.929       .  S
Zn348       O353   1.991       .  S
Zn348       O356   1.913       .  S
Zn348       O359   1.964       .  S
Zn349       O357   2.121       .  S
Zn349       O360   2.059       .  S
Zn349       O361   2.065       .  S
Zn349       O350   1.929       .  S
O352        C364   1.283   1_556  A
O353        C365   1.265       .  A
O354        C363   1.291       .  A
O355        C365   1.265       .  A
O357        C366   1.291       .  A
O358        C367   1.277       .  A
O360        C367   1.277       .  A
O361        C368   1.283   1_556  A
C368       C1078   1.472   1_554  S
Zn369       O374   1.917   1_565  S
Zn369       O378   1.985       .  S
Zn369       O385   1.992       .  S
Zn369       O741   1.914       .  S
Zn370       O375   2.109       .  S
Zn370       O377   2.101       .  S
Zn370       O381   2.012       .  S
Zn370      O1109   1.940       .  S
Zn371       O376   2.011       .  S
Zn371       O379   2.003       .  S
Zn371       O382   1.913       .  S
Zn371       O373   1.914       .  S
Zn372       O380   2.109       .  S
Zn372       O383   2.012   1_455  S
Zn372       O384   2.110   1_455  S
O373       Zn737   1.914   1_455  S
O373      Zn1106   1.940   1_455  S
O375       C1123   1.293       .  A
O376        C756   1.270       .  A
O377        C386   1.275       .  A
O378        C388   1.267       .  A
O379        C387   1.272       .  A
O380        C389   1.273       .  A
O381       C1126   1.271       .  A
O384       C1127   1.295       .  A
O385        C391   1.271       .  A
C387       O1111   1.293       .  A
C387        C435   1.477       .  S
C388        O744   1.270   1_565  A
C390       O1117   1.271       .  A
C390       C1218   1.467       .  S
C391       O1120   1.295       .  A
C391        C456   1.483       .  S
Zn392       O397   2.011       .  S
Zn392       O401   2.003       .  S
Zn392       O408   1.913   1_565  S
Zn392       O396   1.914   1_565  S
Zn393       O398   1.917       .  S
Zn393       O400   1.985       .  S
Zn393       O404   1.991       .  S
Zn394       O399   2.109       .  S
Zn394       O402   2.102       .  S
Zn394       O405   2.012       .  S
Zn394       O396   1.940   1_565  S
Zn395       O403   2.012       .  S
Zn395       O406   2.110       .  S
Zn395       O407   2.109       .  S
O397        C409   1.270   1_565  A
O399        C411   1.293       .  A
O401        C411   1.272       .  A
O402        C410   1.275       .  A
O404        C413   1.271       .  A
O405        C412   1.271   1_565  A
O406        C413   1.295       .  A
O407        C414   1.273       .  A
C411        C432   1.477       .  S
C413        C460   1.483       .  S
Zn415       O420   1.979       .  S
Zn415       O424   1.911       .  S
Zn415       O431   2.005       .  S
Zn415       O419   1.918       .  S
Zn416       O421   2.049       .  S
Zn416       O423   2.117       .  S
Zn416       O427   2.065       .  S
Zn416       O419   1.935       .  S
Zn417       O422   2.065       .  S
Zn417       O425   2.050       .  S
Zn417       O428   2.117       .  S
Zn417       O419   1.935       .  S
Zn418       O426   1.979       .  S
Zn418       O429   1.911       .  S
Zn418       O430   2.005       .  S
Zn418       O419   1.918       .  S
O420        C432   1.265       .  A
O421        C433   1.276       .  A
O422        C434   1.282       .  A
O423        C432   1.290       .  A
O424        C434   1.262       .  A
O425        C433   1.276       .  A
O426        C435   1.265       .  A
O427        C436   1.282       .  A
O428        C435   1.290       .  A
O429        C436   1.262       .  A
O430        C437   1.269       .  A
O431        C437   1.269       .  A
C433        C525   1.484       .  S
C434        C457   1.472       .  S
C436       C1195   1.472   1_455  S
C437        C529   1.452       .  S
Zn438       O443   1.991       .  S
Zn438       O447   1.913       .  S
Zn438       O454   1.964       .  S
Zn438       O442   1.921       .  S
Zn439       O444   1.964       .  S
Zn439       O446   1.991       .  S
Zn439       O450   1.913       .  S
Zn439       O442   1.921       .  S
Zn440       O445   2.065       .  S
Zn440       O448   2.121       .  S
Zn440       O451   2.059       .  S
Zn440       O442   1.929       .  S
Zn441       O449   2.059       .  S
Zn441       O452   2.065       .  S
Zn441       O453   2.122       .  S
Zn441       O442   1.929       .  S
O443        C455   1.265       .  A
O444        C456   1.264       .  A
O445        C457   1.283       .  A
O446        C455   1.265       .  A
O447        C457   1.263       .  A
O448        C456   1.291       .  A
O449        C458   1.277       .  A
O450        C459   1.263       .  A
O451        C458   1.277       .  A
O452        C459   1.283       .  A
O453        C460   1.291       .  A
O454        C460   1.264       .  A
C455        C549   1.443       .  S
C458        C551   1.489       .  S
C459       C1172   1.472       .  S
Zn461       O466   1.913   1_565  S
Zn461       O470   2.011       .  S
Zn461       O477   2.003       .  S
Zn461      O1017   1.913   1_565  S
Zn462       O467   2.110   1_455  S
Zn462       O469   2.109       .  S
Zn462       O473   2.012   1_455  S
Zn462      O1201   1.945       .  S
Zn463       O468   1.985       .  S
Zn463       O471   1.991       .  S
Zn463       O474   1.917       .  S
Zn463       O649   1.914       .  S
Zn464       O472   2.101       .  S
Zn464       O475   2.012       .  S
Zn464       O476   2.109       .  S
O465      Zn1013   1.913   1_554  S
O465      Zn1198   1.945       .  S
O465       Zn647   1.914   1_554  S
O467       C1215   1.295   1_554  A
O468        C480   1.267       .  A
O469        C478   1.273       .  A
O470        C848   1.270   1_565  A
O471        C663   1.271       .  A
O472        C481   1.275       .  A
O473       C1218   1.271       .  A
O476       C1219   1.293       .  A
O477        C667   1.272       .  A
C479       O1203   1.295   1_556  A
C479        O655   1.271       .  A
C479        C731   1.483       .  S
C480        O838   1.270       .  A
C482       O1209   1.271       .  A
C482       C1126   1.467       .  S
C483       O1212   1.293       .  A
C483        O661   1.272   1_554  A
C483        C708   1.477       .  S
Zn484       O489   2.012       .  S
Zn484       O493   2.109       .  S
Zn484       O500   2.101       .  S
Zn484       O672   1.940       .  S
Zn485       O490   2.109       .  S
Zn485       O492   2.012       .  S
Zn485       O496   2.110       .  S
Zn486       O491   2.003       .  S
Zn486       O494   1.913       .  S
Zn486       O497   2.011       .  S
Zn486       O488   1.913       .  S
Zn487       O495   1.985       .  S
Zn487       O498   1.991       .  S
Zn487       O499   1.917   1_565  S
O488       Zn668   1.940       .  S
O489        C501   1.271       .  A
O490        C686   1.273       .  A
O491        C503   1.272       .  A
O493        C687   1.293       .  A
O496        C689   1.295   1_554  A
O497        C504   1.270       .  A
O498        C505   1.271       .  A
O500        C690   1.275       .  A
C502        O674   1.273       .  A
C503        O677   1.293       .  A
C503        C527   1.476       .  S
C505        O680   1.295       .  A
C505        C550   1.483       .  S
C506        O684   1.275       .  A
Zn507       O512   1.979       .  S
Zn507       O516   1.911       .  S
Zn507       O523   2.005       .  S
Zn507       O511   1.918       .  S
Zn508       O513   2.049       .  S
Zn508       O515   2.117       .  S
Zn508       O519   2.065       .  S
Zn508       O695   1.935       .  S
Zn509       O514   2.065       .  S
Zn509       O517   2.050       .  S
Zn509       O520   2.117       .  S
Zn509       O695   1.935       .  S
Zn510       O518   1.979       .  S
Zn510       O521   1.911       .  S
Zn510       O522   2.005       .  S
Zn510       O511   1.918       .  S
O511       Zn692   1.935       .  S
O511       Zn693   1.935       .  S
O512        C524   1.265       .  A
O513        C525   1.276       .  A
O514        C710   1.282   1_554  A
O515        C708   1.290       .  A
O516        C526   1.262       .  A
O517        C525   1.276       .  A
O518        C527   1.265       .  A
O519        C712   1.282   1_554  A
O520        C711   1.290       .  A
O521        C528   1.262       .  A
O522        C529   1.269       .  A
O523        C529   1.269       .  A
C524        O699   1.290       .  A
C524        C667   1.477       .  S
C526        O698   1.282       .  A
C526       C1288   1.472   1_455  S
C527        O704   1.290       .  A
C528        O703   1.282       .  A
C528        C548   1.472       .  S
Zn530       O535   1.965       .  S
Zn530       O539   1.991       .  S
Zn530       O546   1.913       .  S
Zn530       O718   1.921   1_554  S
Zn531       O536   2.065       .  S
Zn531       O538   2.121       .  S
Zn531       O542   2.059       .  S
Zn531       O534   1.929       .  S
Zn532       O537   1.991       .  S
Zn532       O540   1.913       .  S
Zn532       O543   1.964       .  S
Zn532       O718   1.921   1_554  S
Zn533       O541   2.121       .  S
Zn533       O544   2.059       .  S
Zn533       O545   2.065       .  S
Zn533       O534   1.929       .  S
O534       Zn714   1.921       .  S
O534       Zn716   1.921       .  S
O535        C731   1.264   1_554  A
O536        C548   1.283       .  A
O537        C549   1.265       .  A
O538        C547   1.291       .  A
O539        C549   1.265       .  A
O540        C732   1.263       .  A
O541        C550   1.291       .  A
O542        C551   1.277       .  A
O543        C734   1.264   1_554  A
O544        C551   1.277       .  A
O545        C552   1.283       .  A
O546        C736   1.263       .  A
C547        O719   1.264       .  A
C547        C663   1.483       .  S
C548        O724   1.263       .  A
C550        O727   1.264       .  A
C552        O730   1.263       .  A
C552       C1262   1.472       .  S
Zn553       O558   1.917   1_565  S
Zn553       O562   1.985       .  S
Zn553       O569   1.992       .  S
Zn553       O925   1.914       .  S
Zn554       O559   2.109       .  S
Zn554       O561   2.101       .  S
Zn554       O565   2.012       .  S
Zn554      O1293   1.940       .  S
Zn555       O560   2.011       .  S
Zn555       O563   2.003       .  S
Zn555       O566   1.913       .  S
Zn555       O557   1.914       .  S
Zn556       O564   2.109       .  S
Zn556       O567   2.012   1_455  S
Zn556       O568   2.110   1_455  S
O557       Zn921   1.914   1_455  S
O557      Zn1290   1.940   1_455  S
O559       C1307   1.293       .  A
O560        C940   1.270       .  A
O561        C570   1.275       .  A
O562        C572   1.267       .  A
O563        C571   1.272       .  A
O564        C573   1.273       .  A
O565       C1310   1.271       .  A
O568       C1311   1.295       .  A
O569        C575   1.271       .  A
C571       O1295   1.293       .  A
C571        C619   1.477       .  S
C572        O928   1.270   1_565  A
C574       O1301   1.271       .  A
C574       C1402   1.467       .  S
C575       O1304   1.295       .  A
C575        C640   1.483       .  S
Zn576       O581   2.011       .  S
Zn576       O585   2.003       .  S
Zn576       O592   1.913   1_565  S
Zn576       O580   1.914   1_565  S
Zn577       O582   1.917       .  S
Zn577       O584   1.985       .  S
Zn577       O588   1.991       .  S
Zn578       O583   2.109       .  S
Zn578       O586   2.102       .  S
Zn578       O589   2.012       .  S
Zn578       O580   1.940   1_565  S
Zn579       O587   2.012       .  S
Zn579       O590   2.110       .  S
Zn579       O591   2.109       .  S
O581        C593   1.270   1_565  A
O583        C595   1.293       .  A
O585        C595   1.272       .  A
O586        C594   1.275       .  A
O588        C597   1.271       .  A
O589        C596   1.271   1_565  A
O590        C597   1.295       .  A
O591        C598   1.273       .  A
C595        C616   1.477       .  S
C597        C644   1.483       .  S
Zn599       O604   1.979       .  S
Zn599       O608   1.911       .  S
Zn599       O615   2.005       .  S
Zn599       O603   1.918       .  S
Zn600       O605   2.049       .  S
Zn600       O607   2.117       .  S
Zn600       O611   2.065       .  S
Zn600       O603   1.935       .  S
Zn601       O606   2.065       .  S
Zn601       O609   2.050       .  S
Zn601       O612   2.117       .  S
Zn601       O603   1.935       .  S
Zn602       O610   1.979       .  S
Zn602       O613   1.911       .  S
Zn602       O614   2.005       .  S
Zn602       O603   1.918       .  S
O604        C616   1.265       .  A
O605        C617   1.276       .  A
O606        C618   1.282       .  A
O607        C616   1.290       .  A
O608        C618   1.262       .  A
O609        C617   1.276       .  A
O610        C619   1.265       .  A
O611        C620   1.282       .  A
O612        C619   1.290       .  A
O613        C620   1.262       .  A
O614        C621   1.269       .  A
O615        C621   1.269       .  A
C617        C709   1.484       .  S
C618        C641   1.472       .  S
C620       C1379   1.472   1_455  S
C621        C713   1.452       .  S
Zn622       O627   1.991       .  S
Zn622       O631   1.913       .  S
Zn622       O638   1.964       .  S
Zn622       O626   1.921       .  S
Zn623       O628   1.964       .  S
Zn623       O630   1.991       .  S
Zn623       O634   1.913       .  S
Zn623       O626   1.921       .  S
Zn624       O629   2.065       .  S
Zn624       O632   2.121       .  S
Zn624       O635   2.059       .  S
Zn624       O626   1.929       .  S
Zn625       O633   2.059       .  S
Zn625       O636   2.065       .  S
Zn625       O637   2.122       .  S
Zn625       O626   1.929       .  S
O627        C639   1.265       .  A
O628        C640   1.264       .  A
O629        C641   1.283       .  A
O630        C639   1.265       .  A
O631        C641   1.263       .  A
O632        C640   1.291       .  A
O633        C642   1.277       .  A
O634        C643   1.263       .  A
O635        C642   1.277       .  A
O636        C643   1.283       .  A
O637        C644   1.291       .  A
O638        C644   1.264       .  A
C639        C733   1.443       .  S
C642        C735   1.489       .  S
C643       C1356   1.472       .  S
Zn645       O650   1.913   1_565  S
Zn645       O654   2.011       .  S
Zn645       O661   2.003       .  S
Zn645       O833   1.913   1_566  S
Zn646       O651   2.110   1_455  S
Zn646       O653   2.109       .  S
Zn646       O657   2.012   1_455  S
Zn646      O1385   1.945       .  S
Zn647       O652   1.985       .  S
Zn647       O655   1.991       .  S
Zn647       O658   1.917       .  S
Zn648       O656   2.101       .  S
Zn648       O659   2.012       .  S
Zn648       O660   2.109       .  S
O649       Zn829   1.913       .  S
O649      Zn1382   1.945       .  S
O651       C1399   1.295       .  A
O652        C664   1.267       .  A
O653        C662   1.273       .  A
O654       C1032   1.270   1_565  A
O656        C665   1.275       .  A
O657       C1402   1.271       .  A
O660       C1403   1.293       .  A
C663       O1387   1.295       .  A
C664       O1022   1.270       .  A
C666       O1393   1.271       .  A
C666       C1310   1.467       .  S
C667       O1396   1.293       .  A
Zn668       O673   2.012       .  S
Zn668       O677   2.109       .  S
Zn668       O684   2.101       .  S
Zn669       O674   2.109       .  S
Zn669       O676   2.012       .  S
Zn669       O680   2.110       .  S
Zn670       O675   2.003       .  S
Zn670       O678   1.913       .  S
Zn670       O681   2.011       .  S
Zn670       O672   1.913   1_556  S
Zn671       O679   1.985       .  S
Zn671       O682   1.991       .  S
Zn671       O683   1.917   1_565  S
O673        C685   1.271       .  A
O675        C687   1.272   1_556  A
O681        C688   1.270       .  A
O682        C689   1.271       .  A
C687        C711   1.476       .  S
C689        C734   1.483       .  S
Zn691       O696   1.979       .  S
Zn691       O700   1.911       .  S
Zn691       O707   2.005       .  S
Zn691       O695   1.918   1_556  S
Zn692       O697   2.049       .  S
Zn692       O699   2.117       .  S
Zn692       O703   2.065       .  S
Zn693       O698   2.065       .  S
Zn693       O701   2.050       .  S
Zn693       O704   2.117       .  S
Zn694       O702   1.979       .  S
Zn694       O705   1.911       .  S
Zn694       O706   2.005       .  S
Zn694       O695   1.918   1_556  S
O696        C708   1.265   1_556  A
O697        C709   1.276       .  A
O700        C710   1.262       .  A
O701        C709   1.276       .  A
O702        C711   1.265   1_556  A
O705        C712   1.262       .  A
O706        C713   1.269       .  A
O707        C713   1.269       .  A
C710       C1472   1.472   1_456  S
C712        C732   1.472   1_556  S
Zn714       O719   1.965       .  S
Zn714       O723   1.991       .  S
Zn714       O730   1.913       .  S
Zn715       O720   2.065       .  S
Zn715       O722   2.121       .  S
Zn715       O726   2.059       .  S
Zn715       O718   1.929       .  S
Zn716       O721   1.991       .  S
Zn716       O724   1.913       .  S
Zn716       O727   1.964       .  S
Zn717       O725   2.121       .  S
Zn717       O728   2.059       .  S
Zn717       O729   2.065       .  S
Zn717       O718   1.929       .  S
O720        C732   1.283   1_556  A
O721        C733   1.265       .  A
O722        C731   1.291       .  A
O723        C733   1.265       .  A
O725        C734   1.291       .  A
O726        C735   1.277       .  A
O728        C735   1.277       .  A
O729        C736   1.283   1_556  A
C736       C1446   1.472   1_554  S
Zn737       O742   1.917       .  S
Zn737       O746   1.985       .  S
Zn737       O753   1.992       .  S
Zn738       O743   2.109   1_655  S
Zn738       O745   2.101       .  S
Zn738       O749   2.012       .  S
Zn739       O744   2.011       .  S
Zn739       O747   2.003       .  S
Zn739       O750   1.913   1_545  S
Zn739       O741   1.914   1_545  S
Zn740       O748   2.109       .  S
Zn740       O751   2.012       .  S
Zn740       O752   2.110       .  S
Zn740      O1109   1.945       .  S
O741      Zn1108   1.945       .  S
O742       C1122   1.260       .  A
O745        C754   1.275       .  A
O746        C756   1.267   1_655  A
O747        C755   1.272       .  A
O748        C757   1.273       .  A
O750       C1125   1.259       .  A
O751       C1126   1.271       .  A
O753        C759   1.271       .  A
C754       O1110   1.260       .  A
C754       C1146   1.482   1_545  S
C755        C803   1.477       .  S
C756       C1216   1.455       .  S
C757       O1118   1.259       .  A
C757       C1150   1.485       .  S
C758       O1119   1.271       .  A
C759        C824   1.483       .  S
Zn760       O765   2.011       .  S
Zn760       O769   2.003       .  S
Zn760       O776   1.913       .  S
Zn760       O764   1.914       .  S
Zn761       O766   1.917   1_545  S
Zn761       O768   1.985       .  S
Zn761       O772   1.991       .  S
Zn761      O1132   1.914       .  S
Zn762       O767   2.109       .  S
Zn762       O770   2.102       .  S
Zn762       O773   2.012       .  S
Zn762       O764   1.940       .  S
Zn763       O771   2.012       .  S
Zn763       O774   2.110       .  S
Zn763       O775   2.109       .  S
Zn763      O1132   1.945       .  S
O764      Zn1129   1.914       .  S
O764      Zn1131   1.945       .  S
O765        C777   1.270       .  A
O766       C1146   1.260       .  A
O767        C779   1.293       .  A
O768       C1145   1.267       .  A
O769        C779   1.272       .  A
O770        C778   1.275       .  A
O771       C1148   1.271       .  A
O772        C781   1.271       .  A
O773        C780   1.271       .  A
O774        C781   1.295       .  A
O775        C782   1.273       .  A
O776       C1150   1.259       .  A
C777       O1136   1.267       .  A
C777       C1240   1.455       .  S
C778       O1134   1.260       .  A
C778       C1122   1.482       .  S
C779        C800   1.477       .  S
C780       O1139   1.271       .  A
C780       C1237   1.467       .  S
C781        C828   1.483       .  S
C782       O1144   1.259       .  A
C782       C1125   1.485   1_545  S
Zn783       O788   1.979       .  S
Zn783       O792   1.911       .  S
Zn783       O799   2.005       .  S
Zn783       O787   1.918       .  S
Zn784       O789   2.049       .  S
Zn784       O791   2.117       .  S
Zn784       O795   2.065       .  S
Zn784       O787   1.935       .  S
Zn785       O790   2.065       .  S
Zn785       O793   2.050       .  S
Zn785       O796   2.117       .  S
Zn785       O787   1.935       .  S
Zn786       O794   1.979       .  S
Zn786       O797   1.911       .  S
Zn786       O798   2.005       .  S
Zn786       O787   1.918       .  S
O788        C800   1.265       .  A
O789        C801   1.276       .  A
O790        C802   1.282       .  A
O791        C800   1.290       .  A
O792        C802   1.262       .  A
O793        C801   1.276       .  A
O794        C803   1.265       .  A
O795        C804   1.282       .  A
O796        C803   1.290       .  A
O797        C804   1.262       .  A
O798        C805   1.269       .  A
O799        C805   1.269       .  A
C801        C893   1.484       .  S
C802        C825   1.472       .  S
C805        C897   1.452       .  S
Zn806       O811   1.991       .  S
Zn806       O815   1.913       .  S
Zn806       O822   1.964       .  S
Zn806       O810   1.921       .  S
Zn807       O812   1.964       .  S
Zn807       O814   1.991       .  S
Zn807       O818   1.913       .  S
Zn807       O810   1.921       .  S
Zn808       O813   2.065       .  S
Zn808       O816   2.121       .  S
Zn808       O819   2.059       .  S
Zn808       O810   1.929       .  S
Zn809       O817   2.059       .  S
Zn809       O820   2.065       .  S
Zn809       O821   2.122       .  S
Zn809       O810   1.929       .  S
O811        C823   1.265       .  A
O812        C824   1.264       .  A
O813        C825   1.283       .  A
O814        C823   1.265       .  A
O815        C825   1.263       .  A
O816        C824   1.291       .  A
O817        C826   1.277       .  A
O818        C827   1.263       .  A
O819        C826   1.277       .  A
O820        C827   1.283       .  A
O821        C828   1.291       .  A
O822        C828   1.264       .  A
C823        C917   1.443       .  S
C826        C919   1.489       .  S
Zn829       O834   1.913       .  S
Zn829       O838   2.011       .  S
Zn829       O845   2.003       .  S
Zn830       O835   2.110       .  S
Zn830       O837   2.109       .  S
Zn830       O841   2.012       .  S
Zn831       O836   1.985       .  S
Zn831       O839   1.991       .  S
Zn831       O842   1.917   1_545  S
Zn831      O1017   1.914   1_655  S
Zn832       O840   2.101       .  S
Zn832       O843   2.012       .  S
Zn832       O844   2.109   1_655  S
Zn832      O1201   1.940   1_655  S
O833      Zn1015   1.914   1_454  S
O833      Zn1200   1.940   1_445  S
O834       C1398   1.259       .  A
O836        C848   1.267   1_655  A
O837        C846   1.273       .  A
O839       C1031   1.271       .  A
O840        C849   1.275       .  A
O842       C1401   1.260       .  A
O843       C1218   1.271       .  A
O845       C1035   1.272       .  A
C846       O1386   1.259   1_554  A
C846       C1422   1.485   1_545  S
C847       O1023   1.271       .  A
C847       C1099   1.483       .  S
C848       C1124   1.455   1_545  S
C849       O1394   1.260   1_554  A
C849       C1426   1.481       .  S
C850       O1211   1.271   1_545  A
C851       O1029   1.272   1_554  A
C851       C1076   1.477       .  S
Zn852       O857   2.012       .  S
Zn852       O861   2.109       .  S
Zn852       O868   2.101       .  S
Zn852      O1040   1.940   1_545  S
Zn853       O858   2.109       .  S
Zn853       O860   2.012       .  S
Zn853       O864   2.110       .  S
Zn853      O1408   1.945       .  S
Zn854       O859   2.003       .  S
Zn854       O862   1.913   1_545  S
Zn854       O865   2.011       .  S
Zn854       O856   1.913   1_545  S
Zn855       O863   1.985       .  S
Zn855       O866   1.991       .  S
Zn855       O867   1.917       .  S
Zn855      O1224   1.914       .  S
O856      Zn1036   1.940   1_565  S
O856      Zn1405   1.945       .  S
O856      Zn1223   1.914       .  S
O857        C869   1.271   1_545  A
O858       C1054   1.273       .  A
O859        C871   1.272       .  A
O860       C1237   1.271       .  A
O861       C1055   1.293       .  A
O862       C1238   1.259       .  A
O863       C1240   1.267       .  A
O864       C1057   1.295   1_554  A
O865        C872   1.270   1_545  A
O866        C873   1.271       .  A
O867       C1242   1.260       .  A
O868       C1058   1.275       .  A
C869       O1228   1.271       .  A
C869       C1148   1.467   1_565  S
C870       O1042   1.273       .  A
C870       O1230   1.259       .  A
C870       C1398   1.485       .  S
C871       O1045   1.293       .  A
C871        C895   1.476       .  S
C872       O1231   1.267       .  A
C872       C1145   1.455   1_565  S
C873       O1048   1.295       .  A
C873        C918   1.483       .  S
C874       O1235   1.260       .  A
C874       O1052   1.275       .  A
C874       C1401   1.482   1_545  S
Zn875       O880   1.979       .  S
Zn875       O884   1.911       .  S
Zn875       O891   2.005       .  S
Zn875       O879   1.918       .  S
Zn876       O881   2.049       .  S
Zn876       O883   2.117       .  S
Zn876       O887   2.065       .  S
Zn876      O1063   1.935       .  S
Zn877       O882   2.065       .  S
Zn877       O885   2.050       .  S
Zn877       O888   2.117       .  S
Zn877      O1063   1.935       .  S
Zn878       O886   1.979       .  S
Zn878       O889   1.911       .  S
Zn878       O890   2.005       .  S
Zn878       O879   1.918       .  S
O879      Zn1060   1.935       .  S
O879      Zn1061   1.935       .  S
O880        C892   1.265       .  A
O881        C893   1.276       .  A
O882       C1078   1.282   1_554  A
O883       C1076   1.290       .  A
O884        C894   1.262       .  A
O885        C893   1.276       .  A
O886        C895   1.265       .  A
O887       C1080   1.282   1_554  A
O888       C1079   1.290       .  A
O889        C896   1.262       .  A
O890        C897   1.269       .  A
O891        C897   1.269       .  A
C892       O1067   1.290       .  A
C892       C1035   1.477       .  S
C894       O1066   1.282       .  A
C895       O1072   1.290       .  A
C896       O1071   1.282       .  A
C896        C916   1.472       .  S
Zn898       O903   1.965       .  S
Zn898       O907   1.991       .  S
Zn898       O914   1.913       .  S
Zn898      O1086   1.921   1_554  S
Zn899       O904   2.065       .  S
Zn899       O906   2.121       .  S
Zn899       O910   2.059       .  S
Zn899       O902   1.929       .  S
Zn900       O905   1.991       .  S
Zn900       O908   1.913       .  S
Zn900       O911   1.964       .  S
Zn900      O1086   1.921   1_554  S
Zn901       O909   2.121       .  S
Zn901       O912   2.059       .  S
Zn901       O913   2.065       .  S
Zn901       O902   1.929       .  S
O902      Zn1082   1.921       .  S
O902      Zn1084   1.921       .  S
O903       C1099   1.264   1_554  A
O904        C916   1.283       .  A
O905        C917   1.265       .  A
O906        C915   1.291       .  A
O907        C917   1.265       .  A
O908       C1100   1.263       .  A
O909        C918   1.291       .  A
O910        C919   1.277       .  A
O911       C1102   1.264   1_554  A
O912        C919   1.277       .  A
O913        C920   1.283       .  A
O914       C1104   1.263       .  A
C915       O1087   1.264       .  A
C915       C1031   1.483       .  S
C916       O1092   1.263       .  A
C918       O1095   1.264       .  A
C920       O1098   1.263       .  A
Zn921       O926   1.917       .  S
Zn921       O930   1.985       .  S
Zn921       O937   1.992       .  S
Zn922       O927   2.109   1_655  S
Zn922       O929   2.101       .  S
Zn922       O933   2.012       .  S
Zn923       O928   2.011       .  S
Zn923       O931   2.003       .  S
Zn923       O934   1.913   1_545  S
Zn923       O925   1.914   1_545  S
Zn924       O932   2.109       .  S
Zn924       O935   2.012       .  S
Zn924       O936   2.110       .  S
Zn924      O1293   1.945       .  S
O925      Zn1292   1.945       .  S
O926       C1306   1.260       .  A
O929        C938   1.275       .  A
O930        C940   1.267   1_655  A
O931        C939   1.272       .  A
O932        C941   1.273       .  A
O934       C1309   1.259       .  A
O935       C1310   1.271       .  A
O937        C943   1.271       .  A
C938       O1294   1.260       .  A
C938       C1330   1.482   1_545  S
C939        C987   1.477       .  S
C940       C1400   1.455       .  S
C941       O1302   1.259       .  A
C941       C1334   1.485       .  S
C942       O1303   1.271       .  A
C943       C1008   1.483       .  S
Zn944       O949   2.011       .  S
Zn944       O953   2.003       .  S
Zn944       O960   1.913       .  S
Zn944       O948   1.914       .  S
Zn945       O950   1.917   1_545  S
Zn945       O952   1.985       .  S
Zn945       O956   1.991       .  S
Zn945      O1316   1.914       .  S
Zn946       O951   2.109       .  S
Zn946       O954   2.102       .  S
Zn946       O957   2.012       .  S
Zn946       O948   1.940       .  S
Zn947       O955   2.012       .  S
Zn947       O958   2.110       .  S
Zn947       O959   2.109       .  S
Zn947      O1316   1.945       .  S
O948      Zn1313   1.914       .  S
O948      Zn1315   1.945       .  S
O949        C961   1.270       .  A
O950       C1330   1.260       .  A
O951        C963   1.293       .  A
O952       C1329   1.267       .  A
O953        C963   1.272       .  A
O954        C962   1.275       .  A
O955       C1332   1.271       .  A
O956        C965   1.271       .  A
O957        C964   1.271       .  A
O958        C965   1.295       .  A
O959        C966   1.273       .  A
O960       C1334   1.259       .  A
C961       O1320   1.267       .  A
C961       C1424   1.455       .  S
C962       O1318   1.260       .  A
C962       C1306   1.482       .  S
C963        C984   1.477       .  S
C964       O1323   1.271       .  A
C964       C1421   1.467       .  S
C965       C1012   1.483       .  S
C966       O1328   1.259       .  A
C966       C1309   1.485   1_545  S
Zn967       O972   1.979       .  S
Zn967       O976   1.911       .  S
Zn967       O983   2.005       .  S
Zn967       O971   1.918       .  S
Zn968       O973   2.049       .  S
Zn968       O975   2.117       .  S
Zn968       O979   2.065       .  S
Zn968       O971   1.935       .  S
Zn969       O974   2.065       .  S
Zn969       O977   2.050       .  S
Zn969       O980   2.117       .  S
Zn969       O971   1.935       .  S
Zn970       O978   1.979       .  S
Zn970       O981   1.911       .  S
Zn970       O982   2.005       .  S
Zn970       O971   1.918       .  S
O972        C984   1.265       .  A
O973        C985   1.276       .  A
O974        C986   1.282       .  A
O975        C984   1.290       .  A
O976        C986   1.262       .  A
O977        C985   1.276       .  A
O978        C987   1.265       .  A
O979        C988   1.282       .  A
O980        C987   1.290       .  A
O981        C988   1.262       .  A
O982        C989   1.269       .  A
O983        C989   1.269       .  A
C985       C1077   1.484       .  S
C986       C1009   1.472       .  S
C989       C1081   1.452       .  S
Zn990       O995   1.991       .  S
Zn990       O999   1.913       .  S
Zn990      O1006   1.964       .  S
Zn990       O994   1.921       .  S
Zn991       O996   1.964       .  S
Zn991       O998   1.991       .  S
Zn991      O1002   1.913       .  S
Zn991       O994   1.921       .  S
Zn992       O997   2.065       .  S
Zn992      O1000   2.121       .  S
Zn992      O1003   2.059       .  S
Zn992       O994   1.929       .  S
Zn993      O1001   2.059       .  S
Zn993      O1004   2.065       .  S
Zn993      O1005   2.122       .  S
Zn993       O994   1.929       .  S
O995       C1007   1.265       .  A
O996       C1008   1.264       .  A
O997       C1009   1.283       .  A
O998       C1007   1.265       .  A
O999       C1009   1.263       .  A
O1000      C1008   1.291       .  A
O1001      C1010   1.277       .  A
O1002      C1011   1.263       .  A
O1003      C1010   1.277       .  A
O1004      C1011   1.283       .  A
O1005      C1012   1.291       .  A
O1006      C1012   1.264       .  A
C1007      C1101   1.443       .  S
C1010      C1103   1.489       .  S
Zn1013     O1018   1.913       .  S
Zn1013     O1022   2.011       .  S
Zn1013     O1029   2.003       .  S
Zn1014     O1019   2.110       .  S
Zn1014     O1021   2.109       .  S
Zn1014     O1025   2.012       .  S
Zn1015     O1020   1.985       .  S
Zn1015     O1023   1.991       .  S
Zn1015     O1026   1.917   1_545  S
Zn1016     O1024   2.101       .  S
Zn1016     O1027   2.012       .  S
Zn1016     O1028   2.109   1_655  S
Zn1016     O1385   1.940   1_655  S
O1017     Zn1384   1.940   1_445  S
O1018      C1214   1.259   1_556  A
O1020      C1032   1.267   1_655  A
O1021      C1030   1.273       .  A
O1024      C1033   1.275       .  A
O1026      C1217   1.260   1_556  A
O1027      C1402   1.271       .  A
C1030      O1202   1.259       .  A
C1030      C1238   1.485   1_545  S
C1032      C1308   1.455   1_545  S
C1033      O1210   1.260       .  A
C1033      C1242   1.481       .  S
C1034      O1395   1.271   1_545  A
Zn1036     O1041   2.012       .  S
Zn1036     O1045   2.109       .  S
Zn1036     O1052   2.101       .  S
Zn1037     O1042   2.109       .  S
Zn1037     O1044   2.012       .  S
Zn1037     O1048   2.110       .  S
Zn1037     O1224   1.945       .  S
Zn1038     O1043   2.003       .  S
Zn1038     O1046   1.913   1_545  S
Zn1038     O1049   2.011       .  S
Zn1038     O1040   1.913   1_546  S
Zn1039     O1047   1.985       .  S
Zn1039     O1050   1.991       .  S
Zn1039     O1051   1.917       .  S
Zn1039     O1408   1.914   1_556  S
O1040     Zn1221   1.945       .  S
O1040     Zn1407   1.914   1_554  S
O1041      C1053   1.271   1_545  A
O1043      C1055   1.272   1_556  A
O1044      C1421   1.271       .  A
O1046      C1422   1.259   1_556  A
O1047      C1424   1.267       .  A
O1049      C1056   1.270   1_545  A
O1050      C1057   1.271       .  A
O1051      C1426   1.260   1_556  A
C1053      O1412   1.271       .  A
C1053      C1332   1.467   1_565  S
C1054      O1414   1.259   1_554  A
C1054      C1214   1.485       .  S
C1055      C1079   1.476       .  S
C1056      O1415   1.267       .  A
C1056      C1329   1.455   1_565  S
C1057      C1102   1.483       .  S
C1058      O1419   1.260   1_554  A
C1058      C1217   1.482   1_545  S
Zn1059     O1064   1.979       .  S
Zn1059     O1068   1.911       .  S
Zn1059     O1075   2.005       .  S
Zn1059     O1063   1.918   1_556  S
Zn1060     O1065   2.049       .  S
Zn1060     O1067   2.117       .  S
Zn1060     O1071   2.065       .  S
Zn1061     O1066   2.065       .  S
Zn1061     O1069   2.050       .  S
Zn1061     O1072   2.117       .  S
Zn1062     O1070   1.979       .  S
Zn1062     O1073   1.911       .  S
Zn1062     O1074   2.005       .  S
Zn1062     O1063   1.918   1_556  S
O1064      C1076   1.265   1_556  A
O1065      C1077   1.276       .  A
O1068      C1078   1.262       .  A
O1069      C1077   1.276       .  A
O1070      C1079   1.265   1_556  A
O1073      C1080   1.262       .  A
O1074      C1081   1.269       .  A
O1075      C1081   1.269       .  A
C1080      C1100   1.472   1_556  S
Zn1082     O1087   1.965       .  S
Zn1082     O1091   1.991       .  S
Zn1082     O1098   1.913       .  S
Zn1083     O1088   2.065       .  S
Zn1083     O1090   2.121       .  S
Zn1083     O1094   2.059       .  S
Zn1083     O1086   1.929       .  S
Zn1084     O1089   1.991       .  S
Zn1084     O1092   1.913       .  S
Zn1084     O1095   1.964       .  S
Zn1085     O1093   2.121       .  S
Zn1085     O1096   2.059       .  S
Zn1085     O1097   2.065       .  S
Zn1085     O1086   1.929       .  S
O1088      C1100   1.283   1_556  A
O1089      C1101   1.265       .  A
O1090      C1099   1.291       .  A
O1091      C1101   1.265       .  A
O1093      C1102   1.291       .  A
O1094      C1103   1.277       .  A
O1096      C1103   1.277       .  A
O1097      C1104   1.283   1_556  A
Zn1105     O1110   1.917   1_565  S
Zn1105     O1114   1.985       .  S
Zn1105     O1121   1.992       .  S
Zn1106     O1111   2.109   1_655  S
Zn1106     O1113   2.101       .  S
Zn1106     O1117   2.012       .  S
Zn1107     O1112   2.011       .  S
Zn1107     O1115   2.003       .  S
Zn1107     O1118   1.913       .  S
Zn1107     O1109   1.914       .  S
Zn1108     O1116   2.109       .  S
Zn1108     O1119   2.012       .  S
Zn1108     O1120   2.110       .  S
O1113      C1122   1.275       .  A
O1114      C1124   1.267   1_655  A
O1115      C1123   1.272       .  A
O1116      C1125   1.273       .  A
O1121      C1127   1.271       .  A
C1123      C1171   1.477       .  S
C1127      C1192   1.483       .  S
Zn1128     O1133   2.011       .  S
Zn1128     O1137   2.003       .  S
Zn1128     O1144   1.913   1_565  S
Zn1128     O1132   1.914   1_565  S
Zn1129     O1134   1.917       .  S
Zn1129     O1136   1.985       .  S
Zn1129     O1140   1.991       .  S
Zn1130     O1135   2.109       .  S
Zn1130     O1138   2.102       .  S
Zn1130     O1141   2.012       .  S
Zn1130     O1132   1.940   1_565  S
Zn1131     O1139   2.012       .  S
Zn1131     O1142   2.110       .  S
Zn1131     O1143   2.109       .  S
O1133      C1145   1.270   1_565  A
O1135      C1147   1.293       .  A
O1137      C1147   1.272       .  A
O1138      C1146   1.275       .  A
O1140      C1149   1.271       .  A
O1141      C1148   1.271   1_565  A
O1142      C1149   1.295       .  A
O1143      C1150   1.273       .  A
C1147      C1168   1.477       .  S
C1149      C1196   1.483       .  S
Zn1151     O1156   1.979       .  S
Zn1151     O1160   1.911       .  S
Zn1151     O1167   2.005       .  S
Zn1151     O1155   1.918       .  S
Zn1152     O1157   2.049       .  S
Zn1152     O1159   2.117       .  S
Zn1152     O1163   2.065       .  S
Zn1152     O1155   1.935       .  S
Zn1153     O1158   2.065       .  S
Zn1153     O1161   2.050       .  S
Zn1153     O1164   2.117       .  S
Zn1153     O1155   1.935       .  S
Zn1154     O1162   1.979       .  S
Zn1154     O1165   1.911       .  S
Zn1154     O1166   2.005       .  S
Zn1154     O1155   1.918       .  S
O1156      C1168   1.265       .  A
O1157      C1169   1.276       .  A
O1158      C1170   1.282       .  A
O1159      C1168   1.290       .  A
O1160      C1170   1.262       .  A
O1161      C1169   1.276       .  A
O1162      C1171   1.265       .  A
O1163      C1172   1.282       .  A
O1164      C1171   1.290       .  A
O1165      C1172   1.262       .  A
O1166      C1173   1.269       .  A
O1167      C1173   1.269       .  A
C1169      C1261   1.484       .  S
C1170      C1193   1.472       .  S
C1173      C1265   1.452       .  S
Zn1174     O1179   1.991       .  S
Zn1174     O1183   1.913       .  S
Zn1174     O1190   1.964       .  S
Zn1174     O1178   1.921       .  S
Zn1175     O1180   1.964       .  S
Zn1175     O1182   1.991       .  S
Zn1175     O1186   1.913       .  S
Zn1175     O1178   1.921       .  S
Zn1176     O1181   2.065       .  S
Zn1176     O1184   2.121       .  S
Zn1176     O1187   2.059       .  S
Zn1176     O1178   1.929       .  S
Zn1177     O1185   2.059       .  S
Zn1177     O1188   2.065       .  S
Zn1177     O1189   2.122       .  S
Zn1177     O1178   1.929       .  S
O1179      C1191   1.265       .  A
O1180      C1192   1.264       .  A
O1181      C1193   1.283       .  A
O1182      C1191   1.265       .  A
O1183      C1193   1.263       .  A
O1184      C1192   1.291       .  A
O1185      C1194   1.277       .  A
O1186      C1195   1.263       .  A
O1187      C1194   1.277       .  A
O1188      C1195   1.283       .  A
O1189      C1196   1.291       .  A
O1190      C1196   1.264       .  A
C1191      C1285   1.443       .  S
C1194      C1287   1.489       .  S
Zn1197     O1202   1.913   1_565  S
Zn1197     O1206   2.011       .  S
Zn1197     O1213   2.003       .  S
Zn1198     O1203   2.110       .  S
Zn1198     O1205   2.109       .  S
Zn1198     O1209   2.012       .  S
Zn1199     O1204   1.985       .  S
Zn1199     O1207   1.991       .  S
Zn1199     O1210   1.917       .  S
Zn1199     O1385   1.914   1_655  S
Zn1200     O1208   2.101       .  S
Zn1200     O1211   2.012       .  S
Zn1200     O1212   2.109   1_655  S
O1201     Zn1383   1.914   1_454  S
O1204      C1216   1.267   1_655  A
O1205      C1214   1.273       .  A
O1207      C1399   1.271       .  A
O1208      C1217   1.275       .  A
O1213      C1403   1.272       .  A
C1215      O1391   1.271       .  A
C1215      C1467   1.483       .  S
C1219      O1397   1.272   1_554  A
C1219      C1444   1.477       .  S
Zn1220     O1225   2.012       .  S
Zn1220     O1229   2.109       .  S
Zn1220     O1236   2.101       .  S
Zn1220     O1408   1.940       .  S
Zn1221     O1226   2.109       .  S
Zn1221     O1228   2.012       .  S
Zn1221     O1232   2.110       .  S
Zn1222     O1227   2.003       .  S
Zn1222     O1230   1.913       .  S
Zn1222     O1233   2.011       .  S
Zn1222     O1224   1.913       .  S
Zn1223     O1231   1.985       .  S
Zn1223     O1234   1.991       .  S
Zn1223     O1235   1.917   1_565  S
O1224     Zn1404   1.940       .  S
O1225      C1237   1.271       .  A
O1226      C1422   1.273       .  A
O1227      C1239   1.272       .  A
O1229      C1423   1.293       .  A
O1232      C1425   1.295   1_554  A
O1233      C1240   1.270       .  A
O1234      C1241   1.271       .  A
O1236      C1426   1.275       .  A
C1238      O1410   1.273       .  A
C1239      O1413   1.293       .  A
C1239      C1263   1.476       .  S
C1241      O1416   1.295       .  A
C1241      C1286   1.483       .  S
C1242      O1420   1.275       .  A
Zn1243     O1248   1.979       .  S
Zn1243     O1252   1.911       .  S
Zn1243     O1259   2.005       .  S
Zn1243     O1247   1.918       .  S
Zn1244     O1249   2.049       .  S
Zn1244     O1251   2.117       .  S
Zn1244     O1255   2.065       .  S
Zn1244     O1431   1.935       .  S
Zn1245     O1250   2.065       .  S
Zn1245     O1253   2.050       .  S
Zn1245     O1256   2.117       .  S
Zn1245     O1431   1.935       .  S
Zn1246     O1254   1.979       .  S
Zn1246     O1257   1.911       .  S
Zn1246     O1258   2.005       .  S
Zn1246     O1247   1.918       .  S
O1247     Zn1428   1.935       .  S
O1247     Zn1429   1.935       .  S
O1248      C1260   1.265       .  A
O1249      C1261   1.276       .  A
O1250      C1446   1.282   1_554  A
O1251      C1444   1.290       .  A
O1252      C1262   1.262       .  A
O1253      C1261   1.276       .  A
O1254      C1263   1.265       .  A
O1255      C1448   1.282   1_554  A
O1256      C1447   1.290       .  A
O1257      C1264   1.262       .  A
O1258      C1265   1.269       .  A
O1259      C1265   1.269       .  A
C1260      O1435   1.290       .  A
C1260      C1403   1.477       .  S
C1262      O1434   1.282       .  A
C1263      O1440   1.290       .  A
C1264      O1439   1.282       .  A
C1264      C1284   1.472       .  S
Zn1266     O1271   1.965       .  S
Zn1266     O1275   1.991       .  S
Zn1266     O1282   1.913       .  S
Zn1266     O1454   1.921   1_554  S
Zn1267     O1272   2.065       .  S
Zn1267     O1274   2.121       .  S
Zn1267     O1278   2.059       .  S
Zn1267     O1270   1.929       .  S
Zn1268     O1273   1.991       .  S
Zn1268     O1276   1.913       .  S
Zn1268     O1279   1.964       .  S
Zn1268     O1454   1.921   1_554  S
Zn1269     O1277   2.121       .  S
Zn1269     O1280   2.059       .  S
Zn1269     O1281   2.065       .  S
Zn1269     O1270   1.929       .  S
O1270     Zn1450   1.921       .  S
O1270     Zn1452   1.921       .  S
O1271      C1467   1.264   1_554  A
O1272      C1284   1.283       .  A
O1273      C1285   1.265       .  A
O1274      C1283   1.291       .  A
O1275      C1285   1.265       .  A
O1276      C1468   1.263       .  A
O1277      C1286   1.291       .  A
O1278      C1287   1.277       .  A
O1279      C1470   1.264   1_554  A
O1280      C1287   1.277       .  A
O1281      C1288   1.283       .  A
O1282      C1472   1.263       .  A
C1283      O1455   1.264       .  A
C1283      C1399   1.483       .  S
C1284      O1460   1.263       .  A
C1286      O1463   1.264       .  A
C1288      O1466   1.263       .  A
Zn1289     O1294   1.917   1_565  S
Zn1289     O1298   1.985       .  S
Zn1289     O1305   1.992       .  S
Zn1290     O1295   2.109   1_655  S
Zn1290     O1297   2.101       .  S
Zn1290     O1301   2.012       .  S
Zn1291     O1296   2.011       .  S
Zn1291     O1299   2.003       .  S
Zn1291     O1302   1.913       .  S
Zn1291     O1293   1.914       .  S
Zn1292     O1300   2.109       .  S
Zn1292     O1303   2.012       .  S
Zn1292     O1304   2.110       .  S
O1297      C1306   1.275       .  A
O1298      C1308   1.267   1_655  A
O1299      C1307   1.272       .  A
O1300      C1309   1.273       .  A
O1305      C1311   1.271       .  A
C1307      C1355   1.477       .  S
C1311      C1376   1.483       .  S
Zn1312     O1317   2.011       .  S
Zn1312     O1321   2.003       .  S
Zn1312     O1328   1.913   1_565  S
Zn1312     O1316   1.914   1_565  S
Zn1313     O1318   1.917       .  S
Zn1313     O1320   1.985       .  S
Zn1313     O1324   1.991       .  S
Zn1314     O1319   2.109       .  S
Zn1314     O1322   2.102       .  S
Zn1314     O1325   2.012       .  S
Zn1314     O1316   1.940   1_565  S
Zn1315     O1323   2.012       .  S
Zn1315     O1326   2.110       .  S
Zn1315     O1327   2.109       .  S
O1317      C1329   1.270   1_565  A
O1319      C1331   1.293       .  A
O1321      C1331   1.272       .  A
O1322      C1330   1.275       .  A
O1324      C1333   1.271       .  A
O1325      C1332   1.271   1_565  A
O1326      C1333   1.295       .  A
O1327      C1334   1.273       .  A
C1331      C1352   1.477       .  S
C1333      C1380   1.483       .  S
Zn1335     O1340   1.979       .  S
Zn1335     O1344   1.911       .  S
Zn1335     O1351   2.005       .  S
Zn1335     O1339   1.918       .  S
Zn1336     O1341   2.049       .  S
Zn1336     O1343   2.117       .  S
Zn1336     O1347   2.065       .  S
Zn1336     O1339   1.935       .  S
Zn1337     O1342   2.065       .  S
Zn1337     O1345   2.050       .  S
Zn1337     O1348   2.117       .  S
Zn1337     O1339   1.935       .  S
Zn1338     O1346   1.979       .  S
Zn1338     O1349   1.911       .  S
Zn1338     O1350   2.005       .  S
Zn1338     O1339   1.918       .  S
O1340      C1352   1.265       .  A
O1341      C1353   1.276       .  A
O1342      C1354   1.282       .  A
O1343      C1352   1.290       .  A
O1344      C1354   1.262       .  A
O1345      C1353   1.276       .  A
O1346      C1355   1.265       .  A
O1347      C1356   1.282       .  A
O1348      C1355   1.290       .  A
O1349      C1356   1.262       .  A
O1350      C1357   1.269       .  A
O1351      C1357   1.269       .  A
C1353      C1445   1.484       .  S
C1354      C1377   1.472       .  S
C1357      C1449   1.452       .  S
Zn1358     O1363   1.991       .  S
Zn1358     O1367   1.913       .  S
Zn1358     O1374   1.964       .  S
Zn1358     O1362   1.921       .  S
Zn1359     O1364   1.964       .  S
Zn1359     O1366   1.991       .  S
Zn1359     O1370   1.913       .  S
Zn1359     O1362   1.921       .  S
Zn1360     O1365   2.065       .  S
Zn1360     O1368   2.121       .  S
Zn1360     O1371   2.059       .  S
Zn1360     O1362   1.929       .  S
Zn1361     O1369   2.059       .  S
Zn1361     O1372   2.065       .  S
Zn1361     O1373   2.122       .  S
Zn1361     O1362   1.929       .  S
O1363      C1375   1.265       .  A
O1364      C1376   1.264       .  A
O1365      C1377   1.283       .  A
O1366      C1375   1.265       .  A
O1367      C1377   1.263       .  A
O1368      C1376   1.291       .  A
O1369      C1378   1.277       .  A
O1370      C1379   1.263       .  A
O1371      C1378   1.277       .  A
O1372      C1379   1.283       .  A
O1373      C1380   1.291       .  A
O1374      C1380   1.264       .  A
C1375      C1469   1.443       .  S
C1378      C1471   1.489       .  S
Zn1381     O1386   1.913   1_565  S
Zn1381     O1390   2.011       .  S
Zn1381     O1397   2.003       .  S
Zn1382     O1387   2.110       .  S
Zn1382     O1389   2.109       .  S
Zn1382     O1393   2.012       .  S
Zn1383     O1388   1.985       .  S
Zn1383     O1391   1.991       .  S
Zn1383     O1394   1.917       .  S
Zn1384     O1392   2.101       .  S
Zn1384     O1395   2.012       .  S
Zn1384     O1396   2.109   1_655  S
O1388      C1400   1.267   1_655  A
O1389      C1398   1.273       .  A
O1392      C1401   1.275       .  A
Zn1404     O1409   2.012       .  S
Zn1404     O1413   2.109       .  S
Zn1404     O1420   2.101       .  S
Zn1405     O1410   2.109       .  S
Zn1405     O1412   2.012       .  S
Zn1405     O1416   2.110       .  S
Zn1406     O1411   2.003       .  S
Zn1406     O1414   1.913       .  S
Zn1406     O1417   2.011       .  S
Zn1406     O1408   1.913   1_556  S
Zn1407     O1415   1.985       .  S
Zn1407     O1418   1.991       .  S
Zn1407     O1419   1.917   1_565  S
O1409      C1421   1.271       .  A
O1411      C1423   1.272   1_556  A
O1417      C1424   1.270       .  A
O1418      C1425   1.271       .  A
C1423      C1447   1.476       .  S
C1425      C1470   1.483       .  S
Zn1427     O1432   1.979       .  S
Zn1427     O1436   1.911       .  S
Zn1427     O1443   2.005       .  S
Zn1427     O1431   1.918   1_556  S
Zn1428     O1433   2.049       .  S
Zn1428     O1435   2.117       .  S
Zn1428     O1439   2.065       .  S
Zn1429     O1434   2.065       .  S
Zn1429     O1437   2.050       .  S
Zn1429     O1440   2.117       .  S
Zn1430     O1438   1.979       .  S
Zn1430     O1441   1.911       .  S
Zn1430     O1442   2.005       .  S
Zn1430     O1431   1.918   1_556  S
O1432      C1444   1.265   1_556  A
O1433      C1445   1.276       .  A
O1436      C1446   1.262       .  A
O1437      C1445   1.276       .  A
O1438      C1447   1.265   1_556  A
O1441      C1448   1.262       .  A
O1442      C1449   1.269       .  A
O1443      C1449   1.269       .  A
C1448      C1468   1.472   1_556  S
Zn1450     O1455   1.965       .  S
Zn1450     O1459   1.991       .  S
Zn1450     O1466   1.913       .  S
Zn1451     O1456   2.065       .  S
Zn1451     O1458   2.121       .  S
Zn1451     O1462   2.059       .  S
Zn1451     O1454   1.929       .  S
Zn1452     O1457   1.991       .  S
Zn1452     O1460   1.913       .  S
Zn1452     O1463   1.964       .  S
Zn1453     O1461   2.121       .  S
Zn1453     O1464   2.059       .  S
Zn1453     O1465   2.065       .  S
Zn1453     O1454   1.929       .  S
O1456      C1468   1.283   1_556  A
O1457      C1469   1.265       .  A
O1458      C1467   1.291       .  A
O1459      C1469   1.265       .  A
O1461      C1470   1.291       .  A
O1462      C1471   1.277       .  A
O1464      C1471   1.277       .  A
O1465      C1472   1.283   1_556  A
