geometry optimzed in LAMMPS
_audit_creation_date              2020-12-01 
_audit_creation_method            'lammps2cif' 
_symmetry_space_group_name_H-M    'P1' 
_symmetry_Int_Tables_number       1 
_symmetry_cell_setting            triclinic 
loop_ 
_symmetry_equiv_pos_as_xyz 
  x,y,z 
_cell_length_a                    30.91938506 
_cell_length_b                    26.73715625981914 
_cell_length_c                    30.26420731034133 
_cell_angle_alpha                 73.63335047097685 
_cell_angle_beta                  77.58291895035785 
_cell_angle_gamma                 89.43449609447983 
loop_ 
_atom_site_label 
_atom_site_type_symbol 
_atom_site_fract_x 
_atom_site_fract_y 
_atom_site_fract_z 
_atom_site_charge 
Zr1        Zr  0.94959532  0.98240446  0.44913185     2.17500
O2          O  0.91248148  0.02175205  0.38513468    -0.51800
O3          O  0.92184155  0.89319717  0.46573211    -0.75000
O4          O  0.98574948  0.96536319  0.37614169    -0.81800
O5          O  0.85596739  0.01645032  0.53844783    -0.83500
O6          O  0.06053570  0.97432053  0.36497114    -0.79100
O7          O  0.87065918  0.99172318  0.47109983    -0.90800
O8          O  0.94851794  0.84346866  0.52706644    -0.76700
O9          O  0.01123997  0.93270376  0.46632538    -0.86200
O10         O  0.93375266  0.94873211  0.53281934    -0.85900
O11         O  0.01331512  0.04233399  0.41600803    -0.72700
O12         O  0.94004573  0.05696896  0.47852125    -0.84800
Zr13       Zr  0.05184542  0.03347892  0.54846202     2.26400
Zr14       Zr  0.07498989  0.99244600  0.43573023     2.06300
Zr15       Zr  0.92630222  0.02305686  0.56252344     2.10000
Zr16       Zr  0.99564351  0.89967458  0.54987726     1.78800
O17         O  0.89470477  0.10562978  0.56728872    -0.93600
O18         O  0.04146824  0.83028536  0.53198319    -0.41400
O19         O  0.98838975  0.97328937  0.58058450    -0.78000
O20         O  0.06072447  0.95743917  0.52015636    -0.96700
O21         O  0.06696611  0.06724981  0.46487963    -0.90000
O22         O  0.98999178  0.08333067  0.53155737    -0.92900
C23         C  0.92511861  0.84947746  0.49582352     1.00900
C24         C  0.84377640  0.00429100  0.50444829     1.13800
C25         C  0.02516852  0.96628263  0.35136214     1.04600
O26         O  0.11567174  0.91685029  0.42478302    -0.95000
O27         O  0.14557465  0.99788526  0.45918309    -0.90800
O28         O  0.12935943  0.01263081  0.53092049    -0.83900
C29         C  0.15688659  0.00362384  0.49613083     1.11200
O30         O  0.96637979  0.14555931  0.38269853    -0.97000
Zr31       Zr  0.00443521  0.11528711  0.44740332     1.88900
O32         O  0.07777072  0.12442830  0.52830289    -0.73600
O33         O  0.12462242  0.05382565  0.36946427    -0.52900
O34         O  0.05771636  0.16403559  0.37672113    -0.97600
O35         O  0.95609951  0.18410103  0.46243091    -0.54800
O36         O  0.05132392  0.17315273  0.46673473    -0.74200
C37         C  0.07491016  0.16773909  0.49747939     0.98200
O38         O  0.08993608  0.03285720  0.61128784    -0.63000
O39         O  0.87138399  0.97127924  0.63026491    -0.57800
O40         O  0.01440551  0.02183168  0.63022622    -0.94500
O41         O  0.93981297  0.02589231  0.63856211    -0.92900
O42         O  0.94526739  0.85605898  0.62456763    -0.93300
O43         O  0.03572401  0.86031134  0.61105651    -0.92000
C44         C  0.97510709  0.02175904  0.65508652     1.17000
H45         H  0.90669542  0.92697692  0.54449910     0.33000
H46         H  0.08495615  0.93729252  0.52972123     0.43800
H47         H  0.98695598  0.11134006  0.54620452     0.37300
H48         H  0.01718166  0.05534014  0.38218913     0.33800
H49         H  0.02534605  0.79760937  0.55330933     0.25600
H50         H  0.14484362  0.03160877  0.35418599     0.31500
H51         H  0.05185889  0.20123129  0.37359015     0.37500
H52         H  0.93748471  0.82150346  0.62159624     0.31900
H53         H  0.84576108  0.99353451  0.63324667     0.30800
H54         H  0.86863458  0.09578061  0.59408974     0.32500
H55         H  0.97206497  0.21691146  0.44122133     0.31400
H56         H  0.03643847  0.88680776  0.62812791     0.35400
H57         H  0.10186196  0.99777518  0.62000497     0.28200
H58         H  0.90490503  0.99274010  0.37332708     0.32400
H59         H  0.97443239  0.18335825  0.36910027     0.35300
H60         H  0.86088218  0.94251867  0.61987643     0.27900
H61         H  0.11626348  0.05730215  0.59647718     0.40700
H62         H  0.10971092  0.89145338  0.45659313     0.30800
H63         H  0.03841961  0.83017512  0.50011177     0.38400
H64         H  0.95744674  0.18526598  0.49451402     0.30300
H65         H  0.10592583  0.06884131  0.34671426     0.30300
H66         H  0.93569322  0.04377068  0.35925845     0.30600
Zr67       Zr  0.45071287  0.97994709  0.44776185     2.17500
O68         O  0.41257178  0.01714416  0.38421504    -0.51800
O69         O  0.42339555  0.89059557  0.46546858    -0.75000
O70         O  0.48752268  0.96499873  0.37376761    -0.81800
O71         O  0.35645939  0.01006652  0.53686082    -0.83500
O72         O  0.56197719  0.97838390  0.36208133    -0.79100
O73         O  0.37178916  0.98766237  0.46835360    -0.90800
O74         O  0.44865153  0.84250617  0.52843769    -0.76700
O75         O  0.51326749  0.93176948  0.46418289    -0.86200
O76         O  0.43531659  0.94558039  0.53148791    -0.85900
O77         O  0.51244720  0.04228117  0.41555808    -0.72700
O78         O  0.43941450  0.05365060  0.47844555    -0.84800
Zr79       Zr  0.55158890  0.03256918  0.54812914     2.26400
Zr80       Zr  0.57523657  0.99418448  0.43396388     2.06300
Zr81       Zr  0.42596531  0.01877481  0.56233448     2.10000
Zr82       Zr  0.49819212  0.89831670  0.54791767     1.78800
O83         O  0.39225272  0.09937428  0.57033811    -0.93600
O84         O  0.54366703  0.82940589  0.52825238    -0.41400
O85         O  0.48916449  0.97075887  0.58000946    -0.78000
O86         O  0.56196021  0.95798612  0.51825214    -0.96700
O87         O  0.56603201  0.06772230  0.46487217    -0.90000
O88         O  0.48855324  0.08060808  0.53240754    -0.92900
C89         C  0.42528098  0.84787554  0.49734891     1.00900
C90         C  0.34465747  0.99887990  0.50215689     1.13800
C91         C  0.52705593  0.96866466  0.34854941     1.07000
O92         O  0.61671556  0.91931426  0.42253914    -0.95000
O93         O  0.64645852  0.00125410  0.45506807    -0.90800
O94         O  0.63035460  0.01937641  0.52536601    -0.83900
C95         C  0.65789522  0.00965539  0.49090999     1.11200
O96         O  0.46311754  0.14854631  0.38571632    -0.97000
Zr97       Zr  0.50251044  0.11397425  0.44857398     1.88900
O98         O  0.57562191  0.12348074  0.53045070    -0.73600
O99         O  0.62203442  0.05849663  0.36762224    -0.52900
O100        O  0.55514127  0.15997657  0.37632954    -0.97600
O101        O  0.45385697  0.18123188  0.46665805    -0.54800
O102        O  0.54874331  0.17179255  0.46896154    -0.74200
C103        C  0.57211074  0.16673457  0.49991588     0.98200
O104        O  0.59135921  0.01907903  0.61178081    -0.63000
O105        O  0.37045607  0.96625798  0.62884413    -0.57800
O106        O  0.51369148  0.02790844  0.62812670    -0.94500
O107        O  0.43887643  0.02021435  0.63897700    -0.92900
O108        O  0.44959495  0.85328146  0.62334051    -0.93300
O109        O  0.53881123  0.85805052  0.60826462    -0.92000
C110        C  0.47433558  0.02310820  0.65409299     1.17000
H111        H  0.40850865  0.92340106  0.54332376     0.33000
H112        H  0.58694346  0.93903852  0.52717103     0.43800
H113        H  0.48478617  0.10814602  0.54764795     0.37300
H114        H  0.51591450  0.05598102  0.38183431     0.33800
H115        H  0.52672082  0.79653288  0.54787615     0.25600
H116        H  0.64340855  0.03769904  0.35186302     0.31500
H117        H  0.55211525  0.19747515  0.37403342     0.37500
H118        H  0.44740123  0.81649338  0.62294451     0.31900
H119        H  0.34468563  0.98837357  0.63144788     0.30800
H120        H  0.37064866  0.08886914  0.60109304     0.32500
H121        H  0.45916575  0.18518037  0.49664054     0.31400
H122        H  0.54732934  0.88724277  0.61934740     0.35400
H123        H  0.60587432  0.98555977  0.61373117     0.28200
H124        H  0.40372785  0.98715855  0.37436125     0.32400
H125        H  0.47032450  0.18663969  0.37479166     0.35300
H126        H  0.36051000  0.93769253  0.61786328     0.27900
H127        H  0.61584321  0.04634156  0.60068520     0.40700
H128        H  0.61490573  0.89615974  0.45488091     0.30800
H129        H  0.54172701  0.83140337  0.49557576     0.38400
H130        H  0.42358433  0.16458036  0.47526659     0.30300
H131        H  0.60268864  0.07216314  0.34523598     0.30300
H132        H  0.43543508  0.03780582  0.35713399     0.30600
Zr133      Zr  0.19804047  0.48565958  0.44574207     2.17500
O134        O  0.16136711  0.52195680  0.38067706    -0.51800
O135        O  0.17114791  0.39612390  0.46210672    -0.75000
O136        O  0.23575543  0.46915548  0.37293334    -0.81800
O137        O  0.10328456  0.51979560  0.53222376    -0.83500
O138        O  0.31026466  0.48001330  0.36323930    -0.79100
O139        O  0.11909386  0.49628393  0.46425335    -0.90800
O140        O  0.19751089  0.34692813  0.52374629    -0.76700
O141        O  0.26002792  0.43677922  0.46343986    -0.86200
O142        O  0.18120200  0.45053359  0.52939188    -0.85900
O143        O  0.26062827  0.54734505  0.41499319    -0.72700
O144        O  0.18753595  0.55939753  0.47641978    -0.84800
Zr145      Zr  0.29665839  0.53486736  0.55038919     2.26400
Zr146      Zr  0.32268523  0.49818780  0.43503641     2.06300
Zr147      Zr  0.17168899  0.52383981  0.56037254     2.10000
Zr148      Zr  0.24364861  0.40257023  0.54702281     1.78800
O149        O  0.13477362  0.60304238  0.56702909    -0.93600
O150        O  0.29278744  0.33704860  0.52606977    -0.41400
O151        O  0.23356537  0.47447386  0.57952849    -0.78000
O152        O  0.30780256  0.46118641  0.51936982    -0.96700
O153        O  0.31359814  0.57104579  0.46692040    -0.90000
O154        O  0.23488408  0.58471537  0.53264831    -0.92900
C155        C  0.17451431  0.35254689  0.49232653     1.00900
C156        C  0.09188966  0.50912844  0.49717489     1.13800
C157        C  0.27557102  0.47048138  0.34907674     1.04600
O158        O  0.36797303  0.42625451  0.42273376    -0.95000
O159        O  0.39231188  0.50364302  0.46043950    -0.90800
O160        O  0.37582849  0.52251406  0.53047989    -0.83900
C161        C  0.40350128  0.51215690  0.49646936     1.11200
O162        O  0.21196775  0.66160565  0.38750527    -0.97000
Zr163      Zr  0.25140958  0.61887755  0.44860386     1.88900
O164        O  0.32148647  0.62447209  0.53546927    -0.73600
O165        O  0.37018423  0.56232506  0.36937516    -0.52900
O166        O  0.30574912  0.65960364  0.37601753    -0.97600
O167        O  0.20667986  0.69047522  0.46375287    -0.54800
O168        O  0.30009718  0.67317510  0.47026125    -0.74200
C169        C  0.32107158  0.66733194  0.50336940     0.98200
O170        O  0.33118687  0.51543519  0.61821633    -0.63000
O171        O  0.11764705  0.46796833  0.62649311    -0.57800
O172        O  0.25820703  0.52896930  0.63056092    -0.94500
O173        O  0.18350859  0.52768628  0.63694568    -0.92900
O174        O  0.19320860  0.35428412  0.61996849    -0.93300
O175        O  0.28104796  0.36411739  0.61076752    -0.92000
C176        C  0.21816435  0.52681854  0.65424654     1.17000
H177        H  0.15435600  0.42841467  0.54041999     0.33000
H178        H  0.33239892  0.44181019  0.52892618     0.43800
H179        H  0.23089694  0.61203563  0.54812471     0.37300
H180        H  0.26482885  0.56104003  0.38118084     0.33800
H181        H  0.27942817  0.30345145  0.54843683     0.25600
H182        H  0.39238050  0.54143984  0.35472489     0.31500
H183        H  0.30778437  0.69695462  0.37471188     0.37500
H184        H  0.19534755  0.31725604  0.62015184     0.31900
H185        H  0.09209037  0.48987202  0.63155186     0.30800
H186        H  0.10921350  0.59095811  0.59417291     0.32500
H187        H  0.22585970  0.72247540  0.44661957     0.31400
H188        H  0.27831446  0.38955703  0.62937245     0.35400
H189        H  0.34711836  0.48307573  0.61822980     0.28200
H190        H  0.15429087  0.49204579  0.36975896     0.32400
H191        H  0.22818599  0.69564478  0.37030618     0.35300
H192        H  0.10675498  0.44117685  0.61403887     0.27900
H193        H  0.35454184  0.54340907  0.61082965     0.40700
H194        H  0.36118300  0.39922272  0.45365682     0.30800
H195        H  0.28800051  0.33558601  0.49512793     0.38400
H196        H  0.20441437  0.68751681  0.49752744     0.30300
H197        H  0.35154522  0.57495416  0.34607738     0.30300
H198        H  0.18445739  0.54376275  0.35447739     0.30600
Zr199      Zr  0.69695961  0.48363223  0.44567599     2.17500
O200        O  0.65750094  0.52230177  0.38363593    -0.51800
O201        O  0.66941230  0.39455882  0.46238997    -0.75000
O202        O  0.73181387  0.46727544  0.37193817    -0.81800
O203        O  0.60437084  0.51520631  0.53637297    -0.83500
O204        O  0.80666794  0.47628331  0.35941931    -0.79100
O205        O  0.61774268  0.48959300  0.46953893    -0.90800
O206        O  0.69751513  0.34550830  0.52274849    -0.76700
O207        O  0.75935169  0.43403940  0.46063516    -0.86200
O208        O  0.68315795  0.44869805  0.52910726    -0.85900
O209        O  0.75981061  0.54455220  0.41225592    -0.72700
O210        O  0.68801138  0.55773336  0.47595233    -0.84800
Zr211      Zr  0.80068743  0.53333661  0.54412668     2.26400
Zr212      Zr  0.82234472  0.49481442  0.42955205     2.06300
Zr213      Zr  0.67514509  0.52195058  0.55995705     2.10000
Zr214      Zr  0.74597199  0.40040831  0.54417252     1.78800
O215        O  0.63820610  0.59908037  0.57320427    -0.93600
O216        O  0.79275502  0.33213585  0.52479850    -0.41400
O217        O  0.73781845  0.47268704  0.57655456    -0.78000
O218        O  0.80996026  0.45924461  0.51360011    -0.96700
O219        O  0.81477016  0.56808559  0.46071584    -0.90000
O220        O  0.73823265  0.58283219  0.52883699    -0.92900
C221        C  0.67320528  0.35113650  0.49252306     1.00900
C222        C  0.59136542  0.50212400  0.50317795     1.13800
C223        C  0.77090758  0.46771216  0.34671024     1.04600
O224        O  0.86359582  0.41941497  0.41877505    -0.95000
O225        O  0.89335968  0.50286087  0.45153765    -0.90800
O226        O  0.87977423  0.52794745  0.51875183    -0.83900
C227        C  0.90608742  0.51529000  0.48511677     1.11200
O228        O  0.71569779  0.65664531  0.38087093    -0.97000
Zr229      Zr  0.75234895  0.61668937  0.44505912     1.88900
O230        O  0.82945853  0.62242280  0.52641686    -0.73600
O231        O  0.87013969  0.55581085  0.36158278    -0.52900
O232        O  0.80544400  0.65986377  0.37215865    -0.97600
O233        O  0.70327814  0.68431738  0.46145034    -0.54800
O234        O  0.80020632  0.67245381  0.46718373    -0.74200
C235        C  0.82531289  0.66623779  0.49682587     0.98200
O236        O  0.83586646  0.49133229  0.60933180    -0.63000
O237        O  0.62300527  0.46484555  0.62695006    -0.57800
O238        O  0.76623178  0.54685010  0.61930255    -0.94500
O239        O  0.69259353  0.52505187  0.63453148    -0.92900
O240        O  0.69665718  0.35474702  0.61881100    -0.93300
O241        O  0.78573850  0.35976088  0.60526235    -0.92000
C242        C  0.72771121  0.53613705  0.64712382     1.17000
H243        H  0.65629426  0.42651753  0.54117696     0.33000
H244        H  0.83513292  0.44047220  0.52218896     0.43800
H245        H  0.73519187  0.61055077  0.54387104     0.37300
H246        H  0.76287601  0.55801341  0.37854579     0.33800
H247        H  0.77300203  0.30004886  0.53605483     0.25600
H248        H  0.88762711  0.53341565  0.34409112     0.31500
H249        H  0.80739762  0.69689381  0.37188847     0.37500
H250        H  0.69450835  0.31813923  0.61790788     0.31900
H251        H  0.59850342  0.48720445  0.63475086     0.30800
H252        H  0.60628328  0.58804189  0.58389892     0.32500
H253        H  0.72313973  0.71546982  0.45534834     0.31400
H254        H  0.78429739  0.38449449  0.62442617     0.35400
H255        H  0.81202367  0.46902790  0.63413049     0.28200
H256        H  0.64880659  0.49287162  0.37295451     0.32400
H257        H  0.72577260  0.69402490  0.36967488     0.35300
H258        H  0.60988826  0.43987701  0.61412827     0.27900
H259        H  0.85545788  0.46571074  0.59837337     0.40700
H260        H  0.87298267  0.40435036  0.44886289     0.30800
H261        H  0.79892733  0.34073026  0.48994825     0.38400
H262        H  0.69182413  0.67328390  0.49607721     0.30300
H263        H  0.84989593  0.57297459  0.34129169     0.30300
H264        H  0.68016645  0.54367222  0.35674904     0.30600
Zr265      Zr  0.95302920  0.05234546  0.94852102     2.17500
O266        O  0.94963794  0.13249260  0.88640191    -0.51800
O267        O  0.87476759  0.02882776  0.96281109    -0.75000
O268        O  0.95478889  0.03596904  0.87213017    -0.81800
O269        O  0.94321943  0.13018088  0.03824382    -0.83500
O270        O  0.99585462  0.96549560  0.87077708    -0.79100
O271        O  0.92642602  0.13041123  0.96877235    -0.90800
O272        O  0.85864370  0.95629181  0.02533338    -0.76700
O273        O  0.94882076  0.95961313  0.96826825    -0.86200
O274        O  0.92826029  0.02110252  0.03238249    -0.85900
O275        O  0.02708302  0.03001638  0.92044330    -0.72700
O276        O  0.00655340  0.08582179  0.98147576    -0.84800
Zr277      Zr  0.05206914  0.93585785  0.05807829     2.26400
Zr278      Zr  0.02270859  0.93645290  0.94246045     2.06300
Zr279      Zr  0.98248473  0.05212075  0.06541374     2.10000
Zr280      Zr  0.92509634  0.92855853  0.05179754     1.78800
O281        O  0.02440257  0.12148357  0.07805070    -0.93600
O282        O  0.89596582  0.85416850  0.03354206    -0.41400
O283        O  0.97840118  0.95906168  0.08606987    -0.78000
O284        O  0.99797763  0.90203028  0.02620558    -0.96700
O285        O  0.07663892  0.96832890  0.97471920    -0.90000
O286        O  0.05613500  0.02884557  0.03911187    -0.92900
C287        C  0.84768904  0.99310360  0.99300396     1.00900
C288        C  0.92620702  0.15077910  0.00252102     1.13800
C289        C  0.97281665  0.00219014  0.85182619     1.04600
O290        O  0.98505636  0.86262219  0.93181769    -0.95000
O291        O  0.06556594  0.86113402  0.96625251    -0.90800
O292        O  0.08531049  0.86226313  0.03404842    -0.83900
C293        C  0.08517068  0.84215287  0.00019136     1.11200
O294        O  0.08741162  0.14090801  0.89045092    -0.97000
Zr295      Zr  0.07978473  0.06075142  0.95546067     1.88900
O296        O  0.13080718  0.95640798  0.04255336    -0.73600
O297        O  0.08592831  0.94065847  0.87741746    -0.52900
O298        O  0.13191857  0.05232243  0.88531516    -0.97600
O299        O  0.10788625  0.13541613  0.97433749    -0.54800
O300        O  0.14633311  0.02927680  0.98021900    -0.74200
C301        C  0.15778722  0.99159316  0.01154279     0.98200
O302        O  0.04307117  0.85763768  0.12542409    -0.63000
O303        O  0.92158403  0.05422006  0.13097946    -0.57800
O304        O  0.05372036  0.95134168  0.13317716    -0.94500
O305        O  0.00197275  0.01126173  0.14072023    -0.92900
O306        O  0.87480167  0.93764477  0.12264992    -0.93300
O307        O  0.91420829  0.84738575  0.11566014    -0.92000
C308        C  0.02889105  0.97772714  0.15706950     1.17000
H309        H  0.89969110  0.03382678  0.04288551     0.33000
H310        H  0.99716340  0.86440329  0.03548065     0.43800
H311        H  0.07637978  0.04072890  0.05481510     0.37300
H312        H  0.03610194  0.04445040  0.88660369     0.33800
H313        H  0.86379408  0.85140604  0.04790995     0.25600
H314        H  0.07637823  0.91849633  0.85962344     0.31500
H315        H  0.16114054  0.06487098  0.88765171     0.37500
H316        H  0.84718061  0.91780317  0.12479763     0.31900
H317        H  0.92458910  0.08934618  0.13515055     0.30800
H318        H  0.00415288  0.13240964  0.10336030     0.32500
H319        H  0.11884734  0.12051204  0.00348936     0.31400
H320        H  0.93771032  0.84931378  0.13283882     0.35400
H321        H  0.01603879  0.86251195  0.14790213     0.28200
H322        H  0.92360577  0.12694590  0.87383190     0.32400
H323        H  0.11888652  0.15343437  0.88324120     0.35300
H324        H  0.89438897  0.05476561  0.11861360     0.27900
H325        H  0.03389985  0.82896828  0.11409505     0.40700
H326        H  0.97543868  0.83848670  0.96402029     0.30800
H327        H  0.89767353  0.86613725  0.99911237     0.38400
H328        H  0.08109043  0.15348015  0.98446723     0.30300
H329        H  0.08729255  0.97671263  0.85633955     0.30300
H330        H  0.97572543  0.13323832  0.86062568     0.30600
Zr331      Zr  0.44948911  0.04851889  0.94985371     2.17500
O332        O  0.43612003  0.12672197  0.89042226    -0.51800
O333        O  0.37198554  0.01998221  0.96932644    -0.75000
O334        O  0.45280003  0.03367756  0.87247466    -0.81800
O335        O  0.44426522  0.13040785  0.03634119    -0.83500
O336        O  0.49660855  0.96545974  0.86933578    -0.79100
O337        O  0.42341585  0.12779268  0.96956288    -0.90800
O338        O  0.35853837  0.94778884  0.03229279    -0.76700
O339        O  0.44860020  0.95547900  0.96984132    -0.86200
O340        O  0.42737345  0.01677867  0.03385834    -0.85900
O341        O  0.52415970  0.02957375  0.91929341    -0.72700
O342        O  0.50346725  0.08485741  0.98015329    -0.84800
Zr343      Zr  0.55560393  0.93817626  0.05502192     2.26400
Zr344      Zr  0.52318985  0.93592401  0.94136904     2.06300
Zr345      Zr  0.48175330  0.05124049  0.06427111     2.10000
Zr346      Zr  0.42787842  0.92419496  0.05383320     1.78800
O347        O  0.51940933  0.12186898  0.07982505    -0.93600
O348        O  0.39744272  0.84768778  0.03986236    -0.41400
O349        O  0.48146133  0.95812794  0.08550803    -0.78000
O350        O  0.50130222  0.90149063  0.02527930    -0.96700
O351        O  0.57740627  0.97063685  0.97147016    -0.90000
O352        O  0.55603947  0.03105368  0.03576554    -0.92900
C353        C  0.34599425  0.98419478  0.00083201     1.00900
C354        C  0.42530177  0.14977983  0.00192441     1.13800
C355        C  0.47288430  0.00179068  0.85106664     1.04600
O356        O  0.48817793  0.85971821  0.93167642    -0.95000
O357        O  0.56804530  0.86231439  0.96418530    -0.90800
O358        O  0.58990156  0.86493189  0.03051190    -0.83900
C359        C  0.58898460  0.84424429  0.99712784     1.11200
O360        O  0.58195368  0.14701861  0.89211324    -0.97000
Zr361      Zr  0.57734153  0.06299428  0.95199018     1.88900
O362        O  0.63366926  0.96424497  0.03586919    -0.73600
O363        O  0.58774240  0.93942456  0.87802406    -0.52900
O364        O  0.62352598  0.05851701  0.87710538    -0.97600
O365        O  0.60611728  0.13566917  0.97300926    -0.54800
O366        O  0.64700237  0.03418938  0.97061602    -0.74200
C367        C  0.65969165  0.99848413  0.00261818     0.98200
O368        O  0.55473893  0.85925811  0.12027359    -0.63000
O369        O  0.41708225  0.04942952  0.12725093    -0.57800
O370        O  0.55689115  0.95633294  0.12948689    -0.94500
O371        O  0.50360185  0.01428463  0.13882326    -0.92900
O372        O  0.38249927  0.93199086  0.12782564    -0.93300
O373        O  0.42496881  0.84300244  0.11656695    -0.92000
C374        C  0.53221533  0.98252297  0.15380164     1.17000
H375        H  0.39856549  0.02820097  0.04540403     0.33000
H376        H  0.50175755  0.86390974  0.03448699     0.43800
H377        H  0.57630232  0.04427452  0.05061417     0.37300
H378        H  0.53237593  0.04429065  0.88544492     0.33800
H379        H  0.36607770  0.84348881  0.05737401     0.25600
H380        H  0.58004242  0.91421759  0.86207560     0.31500
H381        H  0.65334871  0.07224984  0.87644878     0.37500
H382        H  0.35146678  0.92917147  0.12469994     0.31900
H383        H  0.42475911  0.07563419  0.14219868     0.30800
H384        H  0.49951785  0.12807485  0.10789778     0.32500
H385        H  0.62244308  0.11969092  0.99785071     0.31400
H386        H  0.45396750  0.84300854  0.12546114     0.35400
H387        H  0.53105853  0.86335015  0.14661275     0.28200
H388        H  0.41189579  0.11660953  0.87739101     0.32400
H389        H  0.61401512  0.15635126  0.87924304     0.35300
H390        H  0.39334255  0.06500175  0.11125019     0.27900
H391        H  0.54243169  0.83071017  0.11094037     0.40700
H392        H  0.47604139  0.83765355  0.96429156     0.30800
H393        H  0.39587395  0.85900432  0.00618549     0.38400
H394        H  0.57955274  0.14921376  0.98969490     0.30300
H395        H  0.58790956  0.97414699  0.85509344     0.30300
H396        H  0.46282823  0.13316659  0.86433987     0.30600
Zr397      Zr  0.19671025  0.55001284  0.95035436     2.17500
O398        O  0.18780693  0.62995935  0.89033155    -0.51800
O399        O  0.11903747  0.52382375  0.96611822    -0.75000
O400        O  0.19896611  0.53681600  0.87266586    -0.81800
O401        O  0.18556073  0.62361664  0.04375170    -0.83500
O402        O  0.24297667  0.46945863  0.86764043    -0.79100
O403        O  0.16906316  0.62639833  0.97357047    -0.90800
O404        O  0.10472104  0.44992934  0.02739673    -0.76700
O405        O  0.19816606  0.45779587  0.96487053    -0.86200
O406        O  0.17203361  0.51292300  0.03379575    -0.85900
O407        O  0.27226092  0.53413934  0.92010496    -0.72700
O408        O  0.24743781  0.58379321  0.98623089    -0.84800
Zr409      Zr  0.30025350  0.43598571  0.05543495     2.26400
Zr410      Zr  0.27374816  0.44088798  0.93725758     2.06300
Zr411      Zr  0.22329119  0.54436010  0.06969689     2.10000
Zr412      Zr  0.17404015  0.42095711  0.04789041     1.78800
O413        O  0.25292470  0.61393484  0.09393521    -0.93600
O414        O  0.14727570  0.35348450  0.01897998    -0.41400
O415        O  0.22459977  0.45170146  0.08564037    -0.78000
O416        O  0.24897262  0.40187406  0.02045313    -0.96700
O417        O  0.32491121  0.47363433  0.97241036    -0.90000
O418        O  0.29866404  0.52837756  0.04100146    -0.92900
C419        C  0.09256905  0.48776295  0.99661082     1.00900
C420        C  0.16878374  0.64539965  0.00820277     1.13800
C421        C  0.21783267  0.50488280  0.85062572     1.04600
O422        O  0.24493199  0.36490432  0.92144672    -0.95000
O423        O  0.31924280  0.36665486  0.95865020    -0.90800
O424        O  0.33620493  0.36479693  0.02842459    -0.83900
C425        C  0.33778628  0.34618630  0.99326120     1.11200
O426        O  0.32547140  0.65086358  0.89997499    -0.97000
Zr427      Zr  0.32229299  0.56553460  0.95776529     1.88900
O428        O  0.37792337  0.46205016  0.03921095    -0.73600
O429        O  0.33737269  0.45514951  0.87077349    -0.52900
O430        O  0.37082689  0.56859760  0.88197627    -0.97600
O431        O  0.34955108  0.63657040  0.98218931    -0.54800
O432        O  0.39138926  0.53564579  0.97744284    -0.74200
C433        C  0.40398021  0.49799794  0.00796438     0.98200
O434        O  0.29801092  0.35487235  0.11862664    -0.63000
O435        O  0.15462159  0.53369369  0.12963984    -0.57800
O436        O  0.30114388  0.45027220  0.13165469    -0.94500
O437        O  0.24730914  0.50692746  0.14328424    -0.92900
O438        O  0.12465271  0.41256764  0.12441296    -0.93300
O439        O  0.17298524  0.33304925  0.10071508    -0.92000
C440        C  0.27664540  0.47551173  0.15709881     1.17000
H441        H  0.14286793  0.52353597  0.04545965     0.33000
H442        H  0.25016284  0.36444084  0.02782454     0.43800
H443        H  0.31788527  0.54074123  0.05747143     0.37300
H444        H  0.28065743  0.55061836  0.88653480     0.33800
H445        H  0.11625806  0.34475637  0.03706765     0.25600
H446        H  0.33406976  0.42667559  0.85655242     0.31500
H447        H  0.38503454  0.53472417  0.88745120     0.37500
H448        H  0.09689183  0.39552230  0.12301549     0.31900
H449        H  0.15685567  0.50034661  0.15355730     0.30800
H450        H  0.22679054  0.62680775  0.11200141     0.32500
H451        H  0.36506468  0.61960541  0.00750924     0.31400
H452        H  0.19352797  0.33585269  0.12099952     0.35400
H453        H  0.27408073  0.35819463  0.14507849     0.28200
H454        H  0.16133799  0.62286539  0.87906339     0.32400
H455        H  0.35724022  0.66272914  0.88957503     0.35300
H456        H  0.15735713  0.56086060  0.14549567     0.27900
H457        H  0.28567450  0.32760453  0.10773449     0.40700
H458        H  0.23164042  0.34117609  0.95304103     0.30800
H459        H  0.14458914  0.37163523  0.98638252     0.38400
H460        H  0.32256001  0.64962399  0.99862133     0.30300
H461        H  0.33155205  0.48718971  0.84726895     0.30300
H462        H  0.21321166  0.63310320  0.86328785     0.30600
Zr463      Zr  0.69676840  0.54878200  0.94705603     2.17500
O464        O  0.68749257  0.62760295  0.88600633    -0.51800
O465        O  0.61866120  0.52287531  0.96414295    -0.75000
O466        O  0.70160145  0.53567833  0.86896625    -0.81800
O467        O  0.68892800  0.62550672  0.03812674    -0.83500
O468        O  0.75113134  0.47359524  0.86140536    -0.79100
O469        O  0.67010855  0.62654735  0.96941596    -0.90800
O470        O  0.60510177  0.44791876  0.02437756    -0.76700
O471        O  0.69768057  0.45626738  0.96210985    -0.86200
O472        O  0.67228292  0.51249458  0.03046426    -0.85900
O473        O  0.77260642  0.53227496  0.91807143    -0.72700
O474        O  0.74806351  0.58308620  0.98183047    -0.84800
Zr475      Zr  0.80001064  0.43536414  0.05322510     2.26400
Zr476      Zr  0.77346919  0.43897389  0.93547982     2.06300
Zr477      Zr  0.72393435  0.54494871  0.06514024     2.10000
Zr478      Zr  0.67416439  0.42029701  0.04543897     1.78800
O479        O  0.75559199  0.61380057  0.08866541    -0.93600
O480        O  0.65163033  0.34859817  0.01890554    -0.41400
O481        O  0.72458818  0.45223207  0.08236401    -0.78000
O482        O  0.74886195  0.40025508  0.01877384    -0.96700
O483        O  0.82454708  0.47212348  0.97035632    -0.90000
O484        O  0.79918759  0.52763203  0.03810073    -0.92900
C485        C  0.59256604  0.48611454  0.99434342     1.00900
C486        C  0.67115590  0.64657765  0.00324827     1.13800
C487        C  0.72514784  0.50819561  0.84504815     1.04600
O488        O  0.73898997  0.36523272  0.92128206    -0.95000
O489        O  0.81878211  0.36505488  0.95705938    -0.90800
O490        O  0.83613471  0.36490690  0.02621541    -0.83900
C491        C  0.83775555  0.34572491  0.99149785     1.11200
O492        O  0.82476981  0.64953750  0.89792487    -0.97000
Zr493      Zr  0.82298750  0.56408462  0.95502179     1.88900
O494        O  0.87779487  0.46147195  0.03683087    -0.73600
O495        O  0.83963152  0.44668193  0.87296134    -0.52900
O496        O  0.87429823  0.56692052  0.88076957    -0.97600
O497        O  0.84752606  0.63375091  0.98295371    -0.54800
O498        O  0.89209039  0.53487051  0.97496529    -0.74200
C499        C  0.90424366  0.49722814  0.00580295     0.98200
O500        O  0.79900189  0.35612717  0.11829244    -0.63000
O501        O  0.65502033  0.53732362  0.12411563    -0.57800
O502        O  0.79933261  0.45016936  0.12922277    -0.94500
O503        O  0.74548261  0.50719676  0.13927799    -0.92900
O504        O  0.62212065  0.41169668  0.12039713    -0.93300
O505        O  0.67125626  0.33629441  0.10465363    -0.92000
C506        C  0.77413681  0.47543267  0.15398976     1.17000
H507        H  0.64317151  0.52329122  0.04204042     0.33000
H508        H  0.74992419  0.36276191  0.02647268     0.43800
H509        H  0.81827184  0.53986083  0.05478484     0.37300
H510        H  0.78168499  0.54894107  0.88454730     0.33800
H511        H  0.62192446  0.33612848  0.03923086     0.25600
H512        H  0.83132254  0.42791076  0.85185960     0.31500
H513        H  0.90266073  0.58207157  0.88276708     0.37500
H514        H  0.60889154  0.44607400  0.11685682     0.31900
H515        H  0.65604098  0.50366420  0.14814692     0.30800
H516        H  0.73132847  0.62186583  0.11246882     0.32500
H517        H  0.86479049  0.61678691  0.00660633     0.31400
H518        H  0.69723970  0.33821575  0.11846449     0.35400
H519        H  0.77160896  0.35694562  0.14202895     0.28200
H520        H  0.66270799  0.61910068  0.87290397     0.32400
H521        H  0.85596354  0.66335282  0.88964099     0.35300
H522        H  0.65865245  0.56415233  0.14005703     0.27900
H523        H  0.79270704  0.32649678  0.10664024     0.40700
H524        H  0.75503504  0.36484737  0.88933636     0.30800
H525        H  0.64582424  0.36537565  0.98727926     0.38400
H526        H  0.82011396  0.64361726  0.00161388     0.30300
H527        H  0.84255712  0.48395864  0.85449375     0.30300
H528        H  0.71428005  0.63208718  0.86020714     0.30600
C529        C  0.54448012  0.48876672  0.99662434    -0.05900
C530        C  0.51481708  0.46067586  0.03828251    -0.33300
C531        C  0.46909768  0.46361059  0.04290805     0.35900
C532        C  0.45208503  0.49512912  0.00539099    -0.06300
C533        C  0.48173460  0.52302485  0.96363445    -0.33200
C534        C  0.52748782  0.52039462  0.95915219     0.35800
H535        H  0.52699750  0.43686285  0.06799478     0.16200
O536        O  0.44157128  0.43691440  0.08487653    -0.60700
H537        H  0.46953784  0.54678693  0.93391239     0.16200
O538        O  0.55510332  0.54771284  0.91748342    -0.60800
H539        H  0.55627245  0.58427642  0.91888584     0.43200
H540        H  0.43912526  0.40050430  0.08338978     0.43200
C541        C  0.04461933  0.49057307  0.99760365    -0.05900
C542        C  0.01613075  0.44659820  0.02322219    -0.33300
C543        C  0.97048205  0.44819975  0.02663225     0.35900
C544        C  0.95221713  0.49462320  0.00446907    -0.06300
C545        C  0.98067867  0.53864180  0.97875391    -0.33200
C546        C  0.02635406  0.53705857  0.97534300     0.35800
H547        H  0.02921763  0.41041530  0.04062575     0.16200
O548        O  0.94426021  0.40385845  0.05143421    -0.60700
H549        H  0.96754848  0.57481218  0.96136285     0.16200
O550        O  0.05252954  0.58145621  0.95054183    -0.60800
H551        H  0.05484463  0.59987337  0.97422828     0.43200
H552        H  0.94327660  0.38447391  0.02809031     0.43200
C553        C  0.40394733  0.20073070  0.99940173    -0.05900
C554        C  0.37870176  0.22036353  0.96534801    -0.33300
C555        C  0.35803150  0.26784883  0.96203363     0.35900
C556        C  0.36151552  0.29697871  0.99369218    -0.06300
C557        C  0.38683717  0.27737913  0.02769124    -0.33200
C558        C  0.40787978  0.23018875  0.03069497     0.35800
H559        H  0.37464917  0.19877025  0.94098879     0.16200
O560        O  0.33346543  0.28440620  0.92840687    -0.60700
H561        H  0.39047511  0.29868754  0.05239420     0.16200
O562        O  0.43283274  0.21398088  0.06401126    -0.60800
H563        H  0.41185169  0.19300351  0.09279366     0.43200
H564        H  0.35529284  0.30166406  0.89883548     0.43200
C565        C  0.61220253  0.79517324  0.99751091    -0.05900
C566        C  0.62369516  0.76527811  0.03915084    -0.33300
C567        C  0.64235054  0.71688388  0.04179140     0.35900
C568        C  0.65080508  0.69754942  0.00191989    -0.06300
C569        C  0.63975015  0.72777592  0.96013735    -0.33200
C570        C  0.62106269  0.77611406  0.95755490     0.35800
H571        H  0.61710824  0.77866605  0.07045619     0.16200
O572        O  0.65148559  0.68863913  0.08390679    -0.60700
H573        H  0.64598738  0.71424038  0.92892314     0.16200
O574        O  0.61177682  0.80432750  0.91553262    -0.60800
H575        H  0.63767200  0.82941482  0.89975981     0.43200
H576        H  0.62294491  0.67017435  0.10301027     0.43200
C577        C  0.80022165  0.99448943  0.99209938    -0.05900
C578        C  0.77265732  0.94918351  0.01577620    -0.33300
C579        C  0.72686985  0.95011107  0.02049319     0.35900
C580        C  0.70778747  0.99659884  0.00010585    -0.06300
C581        C  0.73541833  0.04161641  0.97540164    -0.33200
C582        C  0.78121235  0.04093567  0.97143054     0.35800
H583        H  0.78649817  0.91282243  0.03156219     0.16200
O584        O  0.70132988  0.90498585  0.04426052    -0.60700
H585        H  0.72143926  0.07792851  0.95976178     0.16200
O586        O  0.80656247  0.08657569  0.94957930    -0.60800
H587        H  0.81336256  0.08895633  0.91547624     0.43200
H588        H  0.69534407  0.90416093  0.07801198     0.43200
C589        C  0.29805527  0.98582616  0.00239105    -0.05900
C590        C  0.26977798  0.94227373  0.03015318    -0.33300
C591        C  0.22395154  0.94362531  0.03460378     0.35900
C592        C  0.20563205  0.98897978  0.01055361    -0.06300
C593        C  0.23395909  0.03253641  0.98310867    -0.33200
C594        C  0.27959581  0.03135440  0.97891541     0.35800
H595        H  0.28311819  0.90686511  0.04871283     0.16200
O596        O  0.19775522  0.89989971  0.06142099    -0.60700
H597        H  0.22079904  0.06820047  0.96477267     0.16200
O598        O  0.30543761  0.07583084  0.95344584    -0.60800
H599        H  0.31019345  0.07572896  0.92000861     0.43200
H600        H  0.19237941  0.90214552  0.09430223     0.43200
C601        C  0.86197180  0.29708853  0.99260395    -0.05900
C602        C  0.88023269  0.27346876  0.03177659    -0.33300
C603        C  0.90168711  0.22664416  0.03534101     0.35900
C604        C  0.90476695  0.20144600  0.99962965    -0.06300
C605        C  0.88688090  0.22532686  0.96021923    -0.33200
C606        C  0.86584693  0.27247408  0.95641162     0.35800
H607        H  0.87783649  0.29113713  0.06026792     0.16200
O608        O  0.91878504  0.20566757  0.07442744    -0.60700
H609        H  0.88900280  0.20743298  0.93191173     0.16200
O610        O  0.84973698  0.29417782  0.91677605    -0.60800
H611        H  0.82003068  0.27663598  0.92311514     0.43200
H612        H  0.94757495  0.22525507  0.06811445     0.43200
C613        C  0.14817818  0.69619845  0.00650840    -0.05900
C614        C  0.13816619  0.72642153  0.96410497    -0.33300
C615        C  0.11858709  0.77424951  0.96114316     0.35900
C616        C  0.10816522  0.79297229  0.00119979    -0.06300
C617        C  0.11879310  0.76320977  0.04339971    -0.33200
C618        C  0.13835665  0.71535266  0.04639211     0.35800
H619        H  0.14569226  0.71316329  0.93274683     0.16200
O620        O  0.10971217  0.80207302  0.91878698    -0.60700
H621        H  0.11111311  0.77645957  0.07476633     0.16200
O622        O  0.14729704  0.68767498  0.08875475    -0.60800
H623        H  0.12107818  0.66324042  0.10488747     0.43200
H624        H  0.13497969  0.82814412  0.90370428     0.43200
C625        C  0.72473340  0.51829839  0.79439312    -0.05900
C626        C  0.68520828  0.52706725  0.77818698    -0.33300
C627        C  0.68519484  0.53385302  0.73027362     0.35900
C628        C  0.72535675  0.53333983  0.69755157    -0.06300
C629        C  0.76484610  0.52667063  0.71398971    -0.33200
C630        C  0.76471309  0.51850251  0.76158724     0.35800
H631        H  0.65415429  0.52715460  0.80290852     0.16200
O632        O  0.64573181  0.54014363  0.71617020    -0.60700
H633        H  0.79633615  0.52620238  0.69012152     0.16200
O634        O  0.80431653  0.51202708  0.77550956    -0.60800
H635        H  0.81228394  0.47608185  0.77523290     0.43200
H636        H  0.64362282  0.57842142  0.70415932     0.43200
C637        C  0.77615203  0.46624718  0.20371430    -0.05900
C638        C  0.73652925  0.45278467  0.23778148    -0.33300
C639        C  0.73524213  0.44870875  0.28496300     0.35900
C640        C  0.77388601  0.46077405  0.29888227    -0.06300
C641        C  0.81433224  0.47117249  0.26492288    -0.33200
C642        C  0.81564426  0.47347235  0.21760883     0.35800
H643        H  0.70607093  0.44585415  0.22761131     0.16200
O644        O  0.69541730  0.43452093  0.31674266    -0.60700
H645        H  0.84466606  0.47963453  0.27449954     0.16200
O646        O  0.85516381  0.48500508  0.18494780    -0.60800
H647        H  0.85914227  0.52362816  0.17505842     0.43200
H648        H  0.69380471  0.39582217  0.32653856     0.43200
C649        C  0.21274315  0.51923316  0.70554542    -0.05900
C650        C  0.18921136  0.55348247  0.72836021    -0.33300
C651        C  0.18905785  0.54890693  0.77601961     0.35900
C652        C  0.21223743  0.50903838  0.80171605    -0.06300
C653        C  0.23320407  0.47312049  0.77898139    -0.33200
C654        C  0.23400024  0.47830970  0.73161410     0.35800
H655        H  0.17237560  0.58496364  0.70877143     0.16200
O656        O  0.16657771  0.58390017  0.79666564    -0.60700
H657        H  0.25038901  0.44121573  0.79747540     0.16200
O658        O  0.25524863  0.44246172  0.71105615    -0.60800
H659        H  0.28737238  0.45121373  0.70595474     0.43200
H660        H  0.18812685  0.61389335  0.78938064     0.43200
C661        C  0.28099124  0.46712400  0.20636744    -0.05900
C662        C  0.24611704  0.44063426  0.24320026    -0.33300
C663        C  0.24589532  0.43772357  0.29015628     0.35900
C664        C  0.28045315  0.46313222  0.30115095    -0.06300
C665        C  0.31678982  0.48696108  0.26435515    -0.33200
C666        C  0.31715390  0.48908921  0.21722192     0.35800
H667        H  0.21828193  0.42311517  0.23535403     0.16200
O668        O  0.21065891  0.41159114  0.32477951    -0.60700
H669        H  0.34377300  0.50655283  0.27168648     0.16200
O670        O  0.35192680  0.51485532  0.18184504    -0.60800
H671        H  0.34397372  0.55183695  0.17296178     0.43200
H672        H  0.22236416  0.37862676  0.34142139     0.43200
C673        C  0.45125961  0.50877284  0.49955010    -0.05900
C674        C  0.48056096  0.48519346  0.47003946    -0.33300
C675        C  0.52556004  0.48147916  0.47162773     0.35900
C676        C  0.54289397  0.50223534  0.50289836    -0.06300
C677        C  0.51336173  0.52458767  0.53330821    -0.33200
C678        C  0.46818153  0.52762809  0.53216510     0.35800
H679        H  0.46857197  0.46899517  0.44559831     0.16200
O680        O  0.55190569  0.45616798  0.44311022    -0.60700
H681        H  0.52531575  0.54050405  0.55793637     0.16200
O682        O  0.44131505  0.55055348  0.56235126    -0.60800
H683        H  0.43484162  0.52352005  0.59340386     0.43200
H684        H  0.55935920  0.48192868  0.41136035     0.43200
C685        C  0.95405421  0.51452357  0.48643334    -0.05900
C686        C  0.96923191  0.53842564  0.51666378    -0.33300
C687        C  0.01357004  0.53709505  0.52057936     0.35900
C688        C  0.04430752  0.51142215  0.49403880    -0.06300
C689        C  0.02920760  0.48765299  0.46362102    -0.33200
C690        C  0.98477022  0.48900732  0.45968628     0.35800
H691        H  0.94664681  0.55861315  0.53755165     0.16200
O692        O  0.02661411  0.56261338  0.54939591    -0.60700
H693        H  0.05182131  0.46720185  0.44301830     0.16200
O694        O  0.97155139  0.46336447  0.43103618    -0.60800
H695        H  0.97979715  0.48780867  0.39875069     0.43200
H696        H  0.01894479  0.53775494  0.58150809     0.43200
C697        C  0.47138860  0.01857761  0.70494259    -0.05900
C698        C  0.50964213  0.00531266  0.72270507    -0.33300
C699        C  0.50992850  0.99979101  0.76971567     0.35900
C700        C  0.47156808  0.00823817  0.80097399    -0.06300
C701        C  0.43300460  0.02199193  0.78370668    -0.33200
C702        C  0.43254817  0.02664512  0.73612437     0.35800
H703        H  0.54000011  0.99836988  0.70021102     0.16200
O704        O  0.54880662  0.98795077  0.78429389    -0.60700
H705        H  0.40305936  0.02827930  0.80723412     0.16200
O706        O  0.39409858  0.03873478  0.72074252    -0.60800
H707        H  0.39187652  0.07680554  0.71618755     0.43200
H708        H  0.55276773  0.95074789  0.78556590     0.43200
C709        C  0.53162711  0.96481575  0.29959040    -0.05900
C710        C  0.56955111  0.98723104  0.26432343    -0.33300
C711        C  0.57111832  0.99176054  0.21656763     0.35900
C712        C  0.53451855  0.97373565  0.20352463    -0.06300
C713        C  0.49763664  0.94941557  0.23860712    -0.33200
C714        C  0.49602506  0.94438746  0.28620421     0.35800
H715        H  0.59726143  0.00343226  0.27342343     0.16200
O716        O  0.60778437  0.01555993  0.18288956    -0.60700
H717        H  0.46949763  0.93482179  0.22893896     0.16200
O718        O  0.45948441  0.91914258  0.31936833    -0.60800
H719        H  0.43495707  0.94294043  0.31491739     0.43200
H720        H  0.60038059  0.05240818  0.17104228     0.43200
C721        C  0.39803979  0.80194951  0.49921360    -0.05900
C722        C  0.40811478  0.75187303  0.52382966    -0.33300
C723        C  0.38291352  0.70770546  0.52641640     0.35900
C724        C  0.34687108  0.71310661  0.50396526    -0.06300
C725        C  0.33620299  0.76319884  0.48029148    -0.33200
C726        C  0.36124187  0.80734996  0.47788125     0.35800
H727        H  0.43606500  0.74669791  0.54069856     0.16200
O728        O  0.39515680  0.65946392  0.54916370    -0.60700
H729        H  0.30812866  0.76835855  0.46360260     0.16200
O730        O  0.34832461  0.85560311  0.45607754    -0.60800
H731        H  0.36084082  0.86130538  0.42188480     0.43200
H732        H  0.37942629  0.65276840  0.58265482     0.43200
C733        C  0.64726879  0.30438705  0.49365577    -0.05900
C734        C  0.64814441  0.25761607  0.52922105    -0.33300
C735        C  0.62368105  0.21281172  0.53222934     0.35900
C736        C  0.59728856  0.21389810  0.49929958    -0.06300
C737        C  0.59625988  0.26077343  0.46383516    -0.33200
C738        C  0.62099159  0.30551233  0.46064972     0.35800
H739        H  0.66793546  0.25540771  0.55515526     0.16200
O740        O  0.62678642  0.16806987  0.56703916    -0.60700
H741        H  0.57660890  0.26291598  0.43778928     0.16200
O742        O  0.61897658  0.34996070  0.42509705    -0.60800
H743        H  0.64193848  0.34685907  0.39767110     0.43200
H744        H  0.60184595  0.16806847  0.59378286     0.43200
C745        C  0.97124441  0.01474252  0.70627454    -0.05900
C746        C  0.94080668  0.04201671  0.73123628    -0.33300
C747        C  0.94014506  0.03840318  0.77880794     0.35900
C748        C  0.96938690  0.00586517  0.80250970    -0.06300
C749        C  0.99806483  0.97680938  0.77772192    -0.33200
C750        C  0.99965519  0.98156191  0.73031163     0.35800
H751        H  0.91849816  0.06748278  0.71343288     0.16200
O752        O  0.91050541  0.06625760  0.80174056    -0.60700
H753        H  0.02071421  0.95098141  0.79459555     0.16200
O754        O  0.02861344  0.95246421  0.70798140    -0.60800
H755        H  0.05860778  0.96783339  0.70473191     0.43200
H756        H  0.92371711  0.10248280  0.79083300     0.43200
C757        C  0.02943955  0.96810467  0.20746320    -0.05900
C758        C  0.06940652  0.96773883  0.22250401    -0.33300
C759        C  0.06919348  0.96503918  0.26971666     0.35900
C760        C  0.02845737  0.96105804  0.30289580    -0.06300
C761        C  0.98881600  0.95722861  0.28790327    -0.33200
C762        C  0.98908107  0.96153479  0.24087580     0.35800
H763        H  0.10077411  0.97213537  0.19717700     0.16200
O764        O  0.10887352  0.96754888  0.28250711    -0.60700
H765        H  0.95687245  0.95307084  0.31221368     0.16200
O766        O  0.94946557  0.95892157  0.22785586    -0.60800
H767        H  0.93724505  0.99376064  0.22564299     0.43200
H768        H  0.11608054  0.00531418  0.27630383     0.43200
C769        C  0.79576675  0.00470347  0.50252580    -0.05900
C770        C  0.78226513  0.98784063  0.46714705    -0.33300
C771        C  0.73805552  0.98938132  0.46253983     0.35900
C772        C  0.70559220  0.00769543  0.49390555    -0.06300
C773        C  0.71891596  0.02369609  0.52979701    -0.33200
C774        C  0.76312187  0.02205508  0.53447416     0.35800
H775        H  0.80612381  0.97337096  0.44243387     0.16200
O776        O  0.72701546  0.97161998  0.42785913    -0.60700
H777        H  0.69498226  0.03788408  0.55463373     0.16200
O778        O  0.77391779  0.03859247  0.56991355    -0.60800
H779        H  0.76548800  0.00858368  0.59870978     0.43200
H780        H  0.73583259  0.00079830  0.39845669     0.43200
C781        C  0.20468758  0.00002297  0.49887531    -0.05900
C782        C  0.23706011  0.99921750  0.45870137    -0.33300
C783        C  0.28230503  0.99874943  0.45918667     0.35900
C784        C  0.29661538  0.99885196  0.50064502    -0.06300
C785        C  0.26424689  0.99864158  0.54109841    -0.33200
C786        C  0.21894223  0.99862522  0.54071546     0.35800
H787        H  0.22747751  0.99990860  0.42615443     0.16200
O788        O  0.31211732  0.99889897  0.41842732    -0.60700
H789        H  0.27394528  0.99792504  0.57360071     0.16200
O790        O  0.18907111  0.99705131  0.58178254    -0.60800
H791        H  0.18275988  0.95937170  0.59868779     0.43200
H792        H  0.31809812  0.03628220  0.40024652     0.43200
C793        C  0.89989350  0.80295208  0.49487912    -0.05900
C794        C  0.91305557  0.75278196  0.51508848    -0.33300
C795        C  0.88934209  0.70807093  0.51590172     0.35900
C796        C  0.85129952  0.71281082  0.49654018    -0.06300
C797        C  0.83843626  0.76302130  0.47582420    -0.33200
C798        C  0.86236227  0.80770748  0.47466317     0.35800
H799        H  0.94223220  0.74800163  0.52999917     0.16200
O800        O  0.90487971  0.66002782  0.53385573    -0.60700
H801        H  0.80937301  0.76788010  0.46072266     0.16200
O802        O  0.84763130  0.85576482  0.45522328    -0.60800
H803        H  0.86034385  0.86393448  0.42082529     0.43200
H804        H  0.89724720  0.65337691  0.56862360     0.43200
C805        C  0.14970448  0.30553089  0.49206381    -0.05900
C806        C  0.15511226  0.25702048  0.52333853    -0.33300
C807        C  0.13119217  0.21201237  0.52571144     0.35900
C808        C  0.10070529  0.21465333  0.49658709    -0.06300
C809        C  0.09562676  0.26310035  0.46493780    -0.33200
C810        C  0.11988210  0.30803577  0.46223471     0.35800
H811        H  0.17810610  0.25357740  0.54633674     0.16200
O812        O  0.13896570  0.16555721  0.55581623    -0.60700
H813        H  0.07271675  0.26648434  0.44186094     0.16200
O814        O  0.11331069  0.35417680  0.43087188    -0.60800
H815        H  0.13558427  0.35620345  0.40138193     0.43200
H816        H  0.12019011  0.16461048  0.58705070     0.43200
loop_ 
_geom_bond_atom_site_label_1 
_geom_bond_atom_site_label_2 
_geom_bond_distance 
_geom_bond_site_symmetry_2 
_ccdc_geom_bond_type 
Zr1           O2   2.441   1_565  S
Zr1           O3   2.420       .  S
Zr1           O4   2.415       .  S
Zr1           O7   2.418       .  S
Zr1           O9   2.378   1_655  S
Zr1          O10   2.378       .  S
Zr1          O11   2.400   1_665  S
Zr1          O12   2.393   1_565  S
O2           H58   0.990   1_545  S
O2           H66   0.991       .  S
O3           C23   1.282       .  A
O4           C25   1.283   1_655  A
O5          Zr15   2.460       .  S
O5           C24   1.290       .  A
O6          Zr14   2.454       .  S
O6           C25   1.288       .  A
O7           C24   1.283   1_565  A
O8          Zr16   2.433       .  S
O8           C23   1.284       .  A
O9          Zr14   2.395       .  S
O9          Zr16   2.373   1_455  S
O10         Zr15   2.391   1_565  S
O10         Zr16   2.375       .  S
O10          H45   0.964       .  S
O11         Zr14   2.401   1_545  S
O11         Zr31   2.388       .  S
O11          H48   0.965       .  S
O12         Zr15   2.390       .  S
O12         Zr31   2.389   1_655  S
Zr13         O38   2.439       .  S
Zr13         O32   2.433       .  S
Zr13         O40   2.429       .  S
Zr13         O28   2.435       .  S
Zr13         O19   2.397   1_445  S
Zr13         O20   2.411   1_545  S
Zr13         O21   2.376       .  S
Zr13         O22   2.384   1_455  S
Zr14         O33   2.438   1_565  S
Zr14         O26   2.434       .  S
Zr14         O27   2.453       .  S
Zr14         O20   2.403       .  S
Zr14         O21   2.394   1_565  S
Zr15         O17   2.434       .  S
Zr15         O39   2.440   1_545  S
Zr15         O41   2.447       .  S
Zr15         O19   2.397   1_545  S
Zr15         O22   2.402       .  S
Zr16         O42   2.436       .  S
Zr16         O43   2.436   1_655  S
Zr16         O18   2.435   1_655  S
Zr16         O19   2.392       .  S
Zr16         O20   2.397   1_655  S
O17          H54   0.990       .  S
O18          H49   0.990       .  S
O18          H63   0.990       .  S
O20          H46   0.966       .  S
O21         Zr31   2.382       .  S
O22         Zr31   2.389   1_655  S
O22          H47   0.966       .  S
C23         C793   1.485       .  S
C24         C769   1.498       .  S
C25         C760   1.494       .  S
O26          H62   0.990       .  S
O27          C29   1.289   1_565  A
O28          C29   1.282       .  A
C29         C781   1.499       .  S
O30         Zr31   2.440   1_655  S
O30          H59   0.990       .  S
Zr31         O34   2.438       .  S
Zr31         O35   2.439   1_455  S
Zr31         O36   2.399       .  S
O32          C37   1.282       .  A
O33          H50   0.990       .  S
O33          H65   0.990       .  S
O34          H51   0.991       .  S
O35          H55   0.990       .  S
O35          H64   0.990       .  S
O36          C37   1.278       .  A
C37         C808   1.484       .  S
O38          H57   0.990   1_545  S
O38          H61   0.990       .  S
O39          H53   0.990       .  S
O39          H60   0.990       .  S
O40          C44   1.284   1_455  A
O41          C44   1.286       .  A
O42          H52   0.990       .  S
O43          H56   0.990       .  S
C44         C745   1.485       .  S
Zr67         O68   2.440   1_565  S
Zr67         O69   2.415       .  S
Zr67         O70   2.423       .  S
Zr67         O73   2.407       .  S
Zr67         O75   2.377       .  S
Zr67         O76   2.381       .  S
Zr67         O77   2.391   1_565  S
Zr67         O78   2.397   1_565  S
O68         H124   0.990   1_545  S
O68         H132   0.990       .  S
O69          C89   1.281       .  A
O70          C91   1.283       .  A
O71         Zr81   2.468       .  S
O71          C90   1.292   1_545  A
O72         Zr80   2.446       .  S
O72          C91   1.287       .  A
O73          C90   1.280       .  A
O74         Zr82   2.419       .  S
O74          C89   1.281       .  A
O75         Zr80   2.396       .  S
O75         Zr82   2.380       .  S
O76         Zr81   2.385   1_565  S
O76         Zr82   2.374       .  S
O76         H111   0.964       .  S
O77         Zr80   2.397   1_545  S
O77         Zr97   2.388       .  S
O77         H114   0.965       .  S
O78         Zr81   2.389       .  S
O78         Zr97   2.389       .  S
Zr79        O104   2.444       .  S
Zr79         O98   2.425       .  S
Zr79        O106   2.421       .  S
Zr79         O94   2.435       .  S
Zr79         O85   2.398   1_545  S
Zr79         O86   2.403   1_545  S
Zr79         O87   2.371       .  S
Zr79         O88   2.383       .  S
Zr80         O99   2.436   1_565  S
Zr80         O92   2.433       .  S
Zr80         O93   2.444   1_565  S
Zr80         O86   2.404       .  S
Zr80         O87   2.394   1_565  S
Zr81         O83   2.435       .  S
Zr81        O105   2.437   1_545  S
Zr81        O107   2.447       .  S
Zr81         O85   2.401   1_545  S
Zr81         O88   2.401       .  S
Zr82        O108   2.435       .  S
Zr82        O109   2.434       .  S
Zr82         O84   2.436       .  S
Zr82         O85   2.389       .  S
Zr82         O86   2.394       .  S
O83         H120   0.990       .  S
O84         H115   0.990       .  S
O84         H129   0.990       .  S
O86         H112   0.965       .  S
O87         Zr97   2.378       .  S
O88         Zr97   2.383       .  S
O88         H113   0.967       .  S
C89         C721   1.477       .  S
C90         C784   1.496       .  S
C91         C709   1.491       .  S
O92         H128   0.990       .  S
O93          C95   1.287       .  A
O94          C95   1.283       .  A
C95         C772   1.496       .  S
O96         Zr97   2.437       .  S
O96         H125   0.990       .  S
Zr97        O100   2.436       .  S
Zr97        O101   2.438       .  S
Zr97        O102   2.403       .  S
O98         C103   1.281       .  A
O99         H116   0.990       .  S
O99         H131   0.990       .  S
O100        H117   0.990       .  S
O101        H121   0.990       .  S
O101        H130   0.990       .  S
O102        C103   1.279       .  A
C103        C736   1.482       .  S
O104        H123   0.991   1_545  S
O104        H127   0.990       .  S
O105        H119   0.990       .  S
O105        H126   0.990       .  S
O106        C110   1.284       .  A
O107        C110   1.286       .  A
O108        H118   0.990       .  S
O109        H122   0.990       .  S
C110        C697   1.492       .  S
Zr133       O134   2.443       .  S
Zr133       O135   2.421       .  S
Zr133       O136   2.417       .  S
Zr133       O139   2.417       .  S
Zr133       O141   2.380       .  S
Zr133       O142   2.380       .  S
Zr133       O143   2.399       .  S
Zr133       O144   2.397       .  S
O134        H190   0.990       .  S
O134        H198   0.991       .  S
O135        C155   1.282       .  A
O136        C157   1.282       .  A
O137       Zr147   2.458       .  S
O137        C156   1.290       .  A
O138       Zr146   2.462       .  S
O138        C157   1.290       .  A
O139        C156   1.283       .  A
O140       Zr148   2.410       .  S
O140        C155   1.281       .  A
O141       Zr146   2.396       .  S
O141       Zr148   2.376       .  S
O142       Zr147   2.390       .  S
O142       Zr148   2.380       .  S
O142        H177   0.964       .  S
O143       Zr146   2.404       .  S
O143       Zr163   2.395       .  S
O143        H180   0.965       .  S
O144       Zr147   2.390       .  S
O144       Zr163   2.394       .  S
Zr145       O170   2.440       .  S
Zr145       O164   2.411       .  S
Zr145       O172   2.423       .  S
Zr145       O160   2.434       .  S
Zr145       O151   2.390       .  S
Zr145       O152   2.402       .  S
Zr145       O153   2.378       .  S
Zr145       O154   2.388       .  S
Zr146       O165   2.433       .  S
Zr146       O158   2.434       .  S
Zr146       O159   2.455       .  S
Zr146       O152   2.405       .  S
Zr146       O153   2.395       .  S
Zr147       O149   2.433       .  S
Zr147       O171   2.440       .  S
Zr147       O173   2.452       .  S
Zr147       O151   2.395       .  S
Zr147       O154   2.400       .  S
Zr148       O174   2.434       .  S
Zr148       O175   2.436       .  S
Zr148       O150   2.437       .  S
Zr148       O151   2.384       .  S
Zr148       O152   2.387       .  S
O149        H186   0.990       .  S
O150        H181   0.990       .  S
O150        H195   0.990       .  S
O152        H178   0.966       .  S
O153       Zr163   2.377       .  S
O154       Zr163   2.389       .  S
O154        H179   0.967       .  S
C155        C805   1.482       .  S
C156        C688   1.494       .  S
C157        C664   1.494       .  S
O158        H194   0.990       .  S
O159        C161   1.290       .  A
O160        C161   1.283       .  A
C161        C673   1.500       .  S
O162       Zr163   2.442       .  S
O162        H191   0.990       .  S
Zr163       O166   2.436       .  S
Zr163       O167   2.441       .  S
Zr163       O168   2.410       .  S
O164        C169   1.279       .  A
O165        H182   0.990       .  S
O165        H197   0.990       .  S
O166        H183   0.990       .  S
O167        H187   0.990       .  S
O167        H196   0.990       .  S
O168        C169   1.280       .  A
C169        C724   1.474       .  S
O170        H189   0.991       .  S
O170        H193   0.989       .  S
O171        H185   0.990       .  S
O171        H192   0.990       .  S
O172        C176   1.283       .  A
O173        C176   1.287       .  A
O174        H184   0.990       .  S
O175        H188   0.990       .  S
C176        C649   1.480       .  S
Zr199       O200   2.439       .  S
Zr199       O201   2.414       .  S
Zr199       O202   2.416       .  S
Zr199       O205   2.417       .  S
Zr199       O207   2.381       .  S
Zr199       O208   2.376       .  S
Zr199       O209   2.396       .  S
Zr199       O210   2.397       .  S
O200        H256   0.990       .  S
O200        H264   0.990       .  S
O201        C221   1.281       .  A
O202        C223   1.282       .  A
O203       Zr213   2.466       .  S
O203        C222   1.291       .  A
O204       Zr212   2.455       .  S
O204        C223   1.289       .  A
O205        C222   1.282       .  A
O206       Zr214   2.412       .  S
O206        C221   1.281       .  A
O207       Zr212   2.394       .  S
O207       Zr214   2.377       .  S
O208       Zr213   2.385       .  S
O208       Zr214   2.376       .  S
O208        H243   0.966       .  S
O209       Zr212   2.403       .  S
O209       Zr229   2.394       .  S
O209        H246   0.965       .  S
O210       Zr213   2.396       .  S
O210       Zr229   2.397       .  S
Zr211       O236   2.447       .  S
Zr211       O230   2.423       .  S
Zr211       O238   2.420       .  S
Zr211       O226   2.416       .  S
Zr211       O217   2.391       .  S
Zr211       O218   2.401       .  S
Zr211       O219   2.375       .  S
Zr211       O220   2.384       .  S
Zr212       O231   2.434       .  S
Zr212       O224   2.437       .  S
Zr212       O225   2.455       .  S
Zr212       O218   2.397       .  S
Zr212       O219   2.392       .  S
Zr213       O215   2.437       .  S
Zr213       O237   2.437       .  S
Zr213       O239   2.454       .  S
Zr213       O217   2.395       .  S
Zr213       O220   2.398       .  S
Zr214       O240   2.433       .  S
Zr214       O241   2.435       .  S
Zr214       O216   2.440       .  S
Zr214       O217   2.390       .  S
Zr214       O218   2.387       .  S
O215        H252   0.990       .  S
O216        H247   0.991       .  S
O216        H261   0.990       .  S
O218        H244   0.965       .  S
O219       Zr229   2.374       .  S
O220       Zr229   2.383       .  S
O220        H245   0.967       .  S
C221        C733   1.480       .  S
C222        C676   1.501       .  S
C223        C640   1.494       .  S
O224        H260   0.990       .  S
O225        C227   1.290       .  A
O226        C227   1.283       .  A
C227        C685   1.492       .  S
O228       Zr229   2.440       .  S
O228        H257   0.990       .  S
Zr229       O232   2.437       .  S
Zr229       O233   2.438       .  S
Zr229       O234   2.428       .  S
O230        C235   1.283       .  A
O231        H248   0.990       .  S
O231        H263   0.990       .  S
O232        H249   0.990       .  S
O233        H253   0.990       .  S
O233        H262   0.989       .  S
O234        C235   1.284       .  A
C235        C796   1.486       .  S
O236        H255   0.990       .  S
O236        H259   0.990       .  S
O237        H251   0.990       .  S
O237        H258   0.990       .  S
O238        C242   1.284       .  A
O239        C242   1.288       .  A
O240        H250   0.990       .  S
O241        H254   0.990       .  S
C242        C628   1.493       .  S
Zr265       O266   2.439       .  S
Zr265       O267   2.422       .  S
Zr265       O268   2.461       .  S
Zr265       O271   2.425       .  S
Zr265       O273   2.379   1_545  S
Zr265       O274   2.389   1_556  S
Zr265       O275   2.397   1_655  S
Zr265       O276   2.403   1_655  S
O266        H322   0.990       .  S
O266        H330   0.990       .  S
O267        C287   1.282   1_545  A
O268        C289   1.288       .  A
O269       Zr279   2.433       .  S
O269        C288   1.285       .  A
O270       Zr278   2.411   1_655  S
O270        C289   1.282   1_565  A
O271        C288   1.285   1_556  A
O272       Zr280   2.399       .  S
O272        C287   1.278   1_554  A
O273       Zr278   2.385   1_655  S
O273       Zr280   2.377   1_556  S
O274       Zr279   2.390       .  S
O274       Zr280   2.374   1_545  S
O274        H309   0.965       .  S
O275       Zr278   2.398   1_545  S
O275       Zr295   2.390       .  S
O275        H312   0.965       .  S
O276       Zr279   2.394   1_456  S
O276       Zr295   2.387       .  S
Zr277       O302   2.444       .  S
Zr277       O296   2.416       .  S
Zr277       O304   2.433       .  S
Zr277       O292   2.429       .  S
Zr277       O283   2.394   1_455  S
Zr277       O284   2.400   1_455  S
Zr277       O285   2.377   1_554  S
Zr277       O286   2.387   1_565  S
Zr278       O297   2.436       .  S
Zr278       O290   2.433   1_455  S
Zr278       O291   2.423       .  S
Zr278       O284   2.392   1_456  S
Zr278       O285   2.378       .  S
Zr279       O281   2.434   1_655  S
Zr279       O303   2.437       .  S
Zr279       O305   2.434   1_655  S
Zr279       O283   2.386   1_545  S
Zr279       O286   2.383   1_655  S
Zr280       O306   2.435       .  S
Zr280       O307   2.435       .  S
Zr280       O282   2.437       .  S
Zr280       O283   2.387       .  S
Zr280       O284   2.389       .  S
O281        H318   0.990       .  S
O282        H313   0.991       .  S
O282        H327   0.990   1_554  S
O284        H310   0.964       .  S
O285       Zr295   2.372   1_565  S
O286       Zr295   2.381   1_554  S
O286        H311   0.967       .  S
C287        C577   1.474       .  S
C288        C604   1.491   1_554  S
C289        C748   1.495       .  S
O290        H326   0.990       .  S
O291        C293   1.284   1_556  A
O292        C293   1.285       .  A
C293        C616   1.485       .  S
O294       Zr295   2.440       .  S
O294        H323   0.990       .  S
Zr295       O298   2.439       .  S
Zr295       O299   2.441       .  S
Zr295       O300   2.404       .  S
O296        C301   1.282       .  A
O297        H314   0.990       .  S
O297        H329   0.990       .  S
O298        H315   0.990       .  S
O299        H319   0.990   1_556  S
O299        H328   0.990       .  S
O300        C301   1.280   1_546  A
C301        C592   1.475       .  S
O302        H321   0.991       .  S
O302        H325   0.990       .  S
O303        H317   0.990       .  S
O303        H324   0.990       .  S
O304        C308   1.284       .  A
O305        C308   1.286   1_545  A
O306        H316   0.990       .  S
O307        H320   0.990       .  S
C308        C757   1.477       .  S
Zr331       O332   2.442       .  S
Zr331       O333   2.418       .  S
Zr331       O334   2.464       .  S
Zr331       O337   2.443       .  S
Zr331       O339   2.388   1_545  S
Zr331       O340   2.387   1_556  S
Zr331       O341   2.401       .  S
Zr331       O342   2.401       .  S
O332        H388   0.990       .  S
O332        H396   0.990       .  S
O333        C353   1.281   1_546  A
O334        C355   1.288       .  A
O335       Zr345   2.430       .  S
O335        C354   1.284       .  A
O336       Zr344   2.416       .  S
O336        C355   1.283   1_565  A
O337        C354   1.288   1_556  A
O338       Zr346   2.400       .  S
O338        C353   1.278       .  A
O339       Zr344   2.390       .  S
O339       Zr346   2.384   1_556  S
O340       Zr345   2.387       .  S
O340       Zr346   2.378   1_545  S
O340        H375   0.964       .  S
O341       Zr344   2.401   1_545  S
O341       Zr361   2.389       .  S
O341        H378   0.965       .  S
O342       Zr345   2.393   1_556  S
O342       Zr361   2.388       .  S
Zr343       O368   2.446       .  S
Zr343       O362   2.419       .  S
Zr343       O370   2.444       .  S
Zr343       O358   2.439       .  S
Zr343       O349   2.395       .  S
Zr343       O350   2.402       .  S
Zr343       O351   2.376   1_554  S
Zr343       O352   2.385   1_565  S
Zr344       O363   2.434       .  S
Zr344       O356   2.434       .  S
Zr344       O357   2.422       .  S
Zr344       O350   2.390   1_556  S
Zr344       O351   2.380       .  S
Zr345       O347   2.434       .  S
Zr345       O369   2.438       .  S
Zr345       O371   2.431       .  S
Zr345       O349   2.389   1_545  S
Zr345       O352   2.387       .  S
Zr346       O372   2.436       .  S
Zr346       O373   2.436       .  S
Zr346       O348   2.438       .  S
Zr346       O349   2.385       .  S
Zr346       O350   2.386       .  S
O347        H384   0.990       .  S
O348        H379   0.991       .  S
O348        H393   0.990       .  S
O350        H376   0.965       .  S
O351       Zr361   2.372   1_565  S
O352       Zr361   2.380   1_554  S
O352        H377   0.967       .  S
C353        C589   1.473       .  S
C354        C553   1.498   1_554  S
C355        C700   1.486       .  S
O356        H392   0.990       .  S
O357        C359   1.283       .  A
O358        C359   1.287   1_554  A
C359        C565   1.488       .  S
O360       Zr361   2.440       .  S
O360        H389   0.990       .  S
Zr361       O364   2.439       .  S
Zr361       O365   2.438       .  S
Zr361       O366   2.407       .  S
O362        C367   1.283       .  A
O363        H380   0.990       .  S
O363        H395   0.989       .  S
O364        H381   0.990       .  S
O365        H385   0.990       .  S
O365        H394   0.990       .  S
O366        C367   1.280   1_546  A
C367        C580   1.474       .  S
O368        H387   0.990       .  S
O368        H391   0.990       .  S
O369        H383   0.990       .  S
O369        H390   0.990       .  S
O370        C374   1.285       .  A
O371        C374   1.285   1_545  A
O372        H382   0.990       .  S
O373        H386   0.990       .  S
C374        C712   1.474       .  S
Zr397       O398   2.441       .  S
Zr397       O399   2.416       .  S
Zr397       O400   2.460       .  S
Zr397       O403   2.431       .  S
Zr397       O405   2.381       .  S
Zr397       O406   2.391   1_556  S
Zr397       O407   2.399       .  S
Zr397       O408   2.402       .  S
O398        H454   0.991       .  S
O398        H462   0.990       .  S
O399        C419   1.281       .  A
O400        C421   1.288       .  A
O401       Zr411   2.424       .  S
O401        C420   1.283       .  A
O402       Zr410   2.423       .  S
O402        C421   1.284       .  A
O403        C420   1.286   1_556  A
O404       Zr412   2.418       .  S
O404        C419   1.282   1_554  A
O405       Zr410   2.391       .  S
O405       Zr412   2.378   1_556  S
O406       Zr411   2.383       .  S
O406       Zr412   2.377       .  S
O406        H441   0.966       .  S
O407       Zr410   2.401       .  S
O407       Zr427   2.392       .  S
O407        H444   0.965       .  S
O408       Zr411   2.399   1_556  S
O408       Zr427   2.386       .  S
Zr409       O434   2.444       .  S
Zr409       O428   2.414       .  S
Zr409       O436   2.448       .  S
Zr409       O424   2.444       .  S
Zr409       O415   2.400       .  S
Zr409       O416   2.400       .  S
Zr409       O417   2.382   1_554  S
Zr409       O418   2.386       .  S
Zr410       O429   2.438       .  S
Zr410       O422   2.433       .  S
Zr410       O423   2.439       .  S
Zr410       O416   2.392   1_556  S
Zr410       O417   2.383       .  S
Zr411       O413   2.435       .  S
Zr411       O435   2.438       .  S
Zr411       O437   2.440       .  S
Zr411       O415   2.388       .  S
Zr411       O418   2.385       .  S
Zr412       O438   2.437       .  S
Zr412       O439   2.438       .  S
Zr412       O414   2.436       .  S
Zr412       O415   2.397       .  S
Zr412       O416   2.389       .  S
O413        H450   0.990       .  S
O414        H445   0.990       .  S
O414        H459   0.990   1_554  S
O416        H442   0.964       .  S
O417       Zr427   2.375       .  S
O418       Zr427   2.383   1_554  S
O418        H443   0.967       .  S
C419        C541   1.478       .  S
C420        C613   1.487       .  S
C421        C652   1.500       .  S
O422        H458   0.990       .  S
O423        C425   1.286       .  A
O424        C425   1.288   1_554  A
C425        C556   1.498       .  S
O426       Zr427   2.440       .  S
O426        H455   0.991       .  S
Zr427       O430   2.436       .  S
Zr427       O431   2.440       .  S
Zr427       O432   2.409       .  S
O428        C433   1.282       .  A
O429        H446   0.990       .  S
O429        H461   0.990       .  S
O430        H447   0.990       .  S
O431        H451   0.990   1_556  S
O431        H460   0.990       .  S
O432        C433   1.281   1_556  A
C433        C532   1.475       .  S
O434        H453   0.990       .  S
O434        H457   0.990       .  S
O435        H449   0.990       .  S
O435        H456   0.990       .  S
O436        C440   1.286       .  A
O437        C440   1.286       .  A
O438        H448   0.990       .  S
O439        H452   0.990       .  S
C440        C661   1.479       .  S
Zr463       O464   2.441       .  S
Zr463       O465   2.424       .  S
Zr463       O466   2.458       .  S
Zr463       O469   2.445       .  S
Zr463       O471   2.387       .  S
Zr463       O472   2.387   1_556  S
Zr463       O473   2.403       .  S
Zr463       O474   2.399       .  S
O464        H520   0.990       .  S
O464        H528   0.991       .  S
O465        C485   1.282       .  A
O466        C487   1.287       .  A
O467       Zr477   2.413       .  S
O467        C486   1.281       .  A
O468       Zr476   2.417       .  S
O468        C487   1.282       .  A
O469        C486   1.288   1_556  A
O470       Zr478   2.408       .  S
O470        C485   1.281   1_554  A
O471       Zr476   2.394       .  S
O471       Zr478   2.382   1_556  S
O472       Zr477   2.380       .  S
O472       Zr478   2.380       .  S
O472        H507   0.966       .  S
O473       Zr476   2.401       .  S
O473       Zr493   2.390       .  S
O473        H510   0.965       .  S
O474       Zr477   2.390   1_556  S
O474       Zr493   2.384       .  S
Zr475       O500   2.448       .  S
Zr475       O494   2.417       .  S
Zr475       O502   2.437       .  S
Zr475       O490   2.429       .  S
Zr475       O481   2.395       .  S
Zr475       O482   2.400       .  S
Zr475       O483   2.375   1_554  S
Zr475       O484   2.380       .  S
Zr476       O495   2.435       .  S
Zr476       O488   2.434       .  S
Zr476       O489   2.430       .  S
Zr476       O482   2.393   1_556  S
Zr476       O483   2.380       .  S
Zr477       O479   2.435       .  S
Zr477       O501   2.436       .  S
Zr477       O503   2.419       .  S
Zr477       O481   2.386       .  S
Zr477       O484   2.381       .  S
Zr478       O504   2.436       .  S
Zr478       O505   2.435       .  S
Zr478       O480   2.437       .  S
Zr478       O481   2.392       .  S
Zr478       O482   2.385       .  S
O479        H516   0.990       .  S
O480        H511   0.990       .  S
O480        H525   0.990   1_554  S
O482        H508   0.965       .  S
O483       Zr493   2.372       .  S
O484       Zr493   2.377   1_554  S
O484        H509   0.967       .  S
C485        C529   1.475       .  S
C486        C568   1.489       .  S
C487        C625   1.483       .  S
O488        H524   0.990       .  S
O489        C491   1.285       .  A
O490        C491   1.285   1_554  A
C491        C601   1.490       .  S
O492       Zr493   2.438       .  S
O492        H521   0.990       .  S
Zr493       O496   2.438       .  S
Zr493       O497   2.439       .  S
Zr493       O498   2.407       .  S
O494        C499   1.282       .  A
O495        H512   0.990       .  S
O495        H527   0.990       .  S
O496        H513   0.990       .  S
O497        H517   0.990   1_556  S
O497        H526   0.990   1_556  S
O498        C499   1.280   1_556  A
C499        C544   1.477       .  S
O500        H519   0.990       .  S
O500        H523   0.990       .  S
O501        H515   0.990       .  S
O501        H522   0.990       .  S
O502        C506   1.284       .  A
O503        C506   1.283       .  A
O504        H514   0.990       .  S
O505        H518   0.990       .  S
C506        C637   1.470       .  S
C529        C530   1.406   1_556  A
C529        C534   1.409       .  A
C530        C531   1.394       .  A
C530        H535   1.084       .  S
C531        C532   1.409       .  A
C531        O536   1.372       .  S
C532        C533   1.406   1_554  A
C533        C534   1.395       .  A
C533        H537   1.084       .  S
C534        O538   1.372       .  S
O536        H540   0.991       .  S
O538        H539   0.992       .  S
C541        C542   1.404   1_556  A
C541        C546   1.413       .  A
C542        C543   1.394   1_455  A
C542        H547   1.083       .  S
C543        C544   1.410       .  A
C543        O548   1.372       .  S
C544        C545   1.405   1_554  A
C545        C546   1.395   1_655  A
C545        H549   1.084       .  S
C546        O550   1.372       .  S
O548        H552   0.992       .  S
O550        H551   0.992       .  S
C553        C554   1.407       .  A
C553        C558   1.416   1_556  A
C554        C555   1.404       .  A
C554        H559   1.083       .  S
C555        C556   1.415       .  A
C555        O560   1.371       .  S
C556        C557   1.407   1_556  A
C557        C558   1.403       .  A
C557        H561   1.083       .  S
C558        O562   1.372       .  S
O560        H564   0.991       .  S
O562        H563   0.991       .  S
C565        C566   1.404   1_556  A
C565        C570   1.414       .  A
C566        C567   1.400       .  A
C566        H571   1.083       .  S
C567        C568   1.416       .  A
C567        O572   1.372       .  S
C568        C569   1.405   1_554  A
C569        C570   1.399       .  A
C569        H573   1.083       .  S
C570        O574   1.371       .  S
O572        H576   0.993       .  S
O574        H575   0.992       .  S
C577        C578   1.406   1_556  A
C577        C582   1.409   1_565  A
C578        C579   1.393       .  A
C578        H583   1.084       .  S
C579        C580   1.408       .  A
C579        O584   1.372       .  S
C580        C581   1.406   1_564  A
C581        C582   1.395       .  A
C581        H585   1.084       .  S
C582        O586   1.372       .  S
O584        H588   0.992       .  S
O586        H587   0.992       .  S
C589        C590   1.407       .  A
C589        C594   1.409   1_564  A
C590        C591   1.395       .  A
C590        H595   1.084       .  S
C591        C592   1.410       .  A
C591        O596   1.372       .  S
C592        C593   1.405   1_564  A
C593        C594   1.390       .  A
C593        H597   1.084       .  S
C594        O598   1.373       .  S
O596        H600   0.992       .  S
O598        H599   0.992       .  S
C601        C602   1.408   1_556  A
C601        C606   1.413       .  A
C602        C603   1.399       .  A
C602        H607   1.083       .  S
C603        C604   1.413   1_554  A
C603        O608   1.372       .  S
C604        C605   1.408       .  A
C605        C606   1.400       .  A
C605        H609   1.083       .  S
C606        O610   1.372       .  S
O608        H612   0.991       .  S
O610        H611   0.991       .  S
C613        C614   1.406   1_554  A
C613        C618   1.414       .  A
C614        C615   1.398       .  A
C614        H619   1.083       .  S
C615        C616   1.412   1_556  A
C615        O620   1.372       .  S
C616        C617   1.405       .  A
C617        C618   1.398       .  A
C617        H621   1.083       .  S
C618        O622   1.372       .  S
O620        H624   0.991       .  S
O622        H623   0.991       .  S
C625        C626   1.406       .  A
C625        C630   1.408       .  A
C626        C627   1.410       .  A
C626        H631   1.083       .  S
C627        C628   1.415       .  A
C627        O632   1.371       .  S
C628        C629   1.406       .  A
C629        C630   1.394       .  A
C629        H633   1.083       .  S
C630        O634   1.372       .  S
O632        H636   0.991       .  S
O634        H635   0.992       .  S
C637        C638   1.396       .  A
C637        C642   1.406       .  A
C638        C639   1.393       .  A
C638        H643   1.085       .  S
C639        C640   1.418       .  A
C639        O644   1.371       .  S
C640        C641   1.411       .  A
C641        C642   1.408       .  A
C641        H645   1.083       .  S
C642        O646   1.372       .  S
O644        H648   0.991       .  S
O646        H647   0.992       .  S
C649        C650   1.404       .  A
C649        C654   1.405       .  A
C650        C651   1.412       .  A
C650        H655   1.083       .  S
C651        C652   1.419       .  A
C651        O656   1.371       .  S
C652        C653   1.409       .  A
C653        C654   1.396       .  A
C653        H657   1.083       .  S
C654        O658   1.373       .  S
O656        H660   0.992       .  S
O658        H659   0.992       .  S
C661        C662   1.400       .  A
C661        C666   1.408       .  A
C662        C663   1.400       .  A
C662        H667   1.084       .  S
C663        C664   1.417       .  A
C663        O668   1.373       .  S
C664        C665   1.409       .  A
C665        C666   1.409       .  A
C665        H669   1.083       .  S
C666        O670   1.371       .  S
O668        H672   0.992       .  S
O670        H671   0.992       .  S
C673        C674   1.405       .  A
C673        C678   1.418       .  A
C674        C675   1.404       .  A
C674        H679   1.083       .  S
C675        C676   1.418       .  A
C675        O680   1.372       .  S
C676        C677   1.406       .  A
C677        C678   1.406       .  A
C677        H681   1.083       .  S
C678        O682   1.371       .  S
O680        H684   0.993       .  S
O682        H683   0.992       .  S
C685        C686   1.409       .  A
C685        C690   1.411       .  A
C686        C687   1.400   1_655  A
C686        H691   1.083       .  S
C687        C688   1.410       .  A
C687        O692   1.371       .  S
C688        C689   1.411       .  A
C689        C690   1.404   1_455  A
C689        H693   1.083       .  S
C690        O694   1.372       .  S
O692        H696   0.991       .  S
O694        H695   0.992       .  S
C697        C698   1.404       .  A
C697        C702   1.415       .  A
C698        C699   1.390   1_545  A
C698        H703   1.083   1_545  S
C699        C700   1.409   1_565  A
C699        O704   1.372       .  S
C700        C701   1.407       .  A
C701        C702   1.413       .  A
C701        H705   1.083       .  S
C702        O706   1.371       .  S
O704        H708   0.992       .  S
O706        H707   0.992       .  S
C709        C710   1.410       .  A
C709        C714   1.415       .  A
C710        C711   1.406       .  A
C710        H715   1.083   1_565  S
C711        C712   1.407       .  A
C711        O716   1.371   1_565  S
C712        C713   1.398       .  A
C713        C714   1.398       .  A
C713        H717   1.084       .  S
C714        O718   1.373       .  S
O716        H720   0.992       .  S
O718        H719   0.992       .  S
C721        C722   1.405       .  A
C721        C726   1.411       .  A
C722        C723   1.396       .  A
C722        H727   1.084       .  S
C723        C724   1.411       .  A
C723        O728   1.372       .  S
C724        C725   1.403       .  A
C725        C726   1.394       .  A
C725        H729   1.084       .  S
C726        O730   1.372       .  S
O728        H732   0.992       .  S
O730        H731   0.992       .  S
C733        C734   1.406       .  A
C733        C738   1.411       .  A
C734        C735   1.394       .  A
C734        H739   1.083       .  S
C735        C736   1.412       .  A
C735        O740   1.372       .  S
C736        C737   1.407       .  A
C737        C738   1.395       .  A
C737        H741   1.083       .  S
C738        O742   1.371       .  S
O740        H744   0.991       .  S
O742        H743   0.992       .  S
C745        C746   1.407       .  A
C745        C750   1.408   1_545  A
C746        C747   1.411       .  A
C746        H751   1.083       .  S
C747        C748   1.414       .  A
C747        O752   1.371       .  S
C748        C749   1.408   1_545  A
C749        C750   1.394       .  A
C749        H753   1.083   1_655  S
C750        O754   1.373   1_655  S
O752        H756   0.992       .  S
O754        H755   0.992       .  S
C757        C758   1.405       .  A
C757        C762   1.404   1_455  A
C758        C759   1.409       .  A
C758        H763   1.083       .  S
C759        C760   1.416       .  A
C759        O764   1.371       .  S
C760        C761   1.409   1_455  A
C761        C762   1.393       .  A
C761        H765   1.083       .  S
C762        O766   1.373       .  S
O764        H768   0.992   1_565  S
O766        H767   0.992       .  S
C769        C770   1.411   1_545  A
C769        C774   1.412       .  A
C770        C771   1.403       .  A
C770        H775   1.083       .  S
C771        C772   1.411   1_565  A
C771        O776   1.372       .  S
C772        C773   1.411       .  A
C773        C774   1.403       .  A
C773        H777   1.083       .  S
C774        O778   1.372       .  S
O776        H780   0.992   1_565  S
O778        H779   0.992       .  S
C781        C782   1.404   1_545  A
C781        C786   1.418   1_545  A
C782        C783   1.402       .  A
C782        H787   1.083       .  S
C783        C784   1.418       .  A
C783        O788   1.371       .  S
C784        C785   1.404       .  A
C785        C786   1.403       .  A
C785        H789   1.084       .  S
C786        O790   1.370       .  S
O788        H792   0.993   1_565  S
O790        H791   0.993       .  S
C793        C794   1.405       .  A
C793        C798   1.413       .  A
C794        C795   1.400       .  A
C794        H799   1.084       .  S
C795        C796   1.412       .  A
C795        O800   1.372       .  S
C796        C797   1.406       .  A
C797        C798   1.400       .  A
C797        H801   1.084       .  S
C798        O802   1.372       .  S
O800        H804   0.992       .  S
O802        H803   0.992       .  S
C805        C806   1.406       .  A
C805        C810   1.412       .  A
C806        C807   1.395       .  A
C806        H811   1.083       .  S
C807        C808   1.411       .  A
C807        O812   1.372       .  S
C808        C809   1.408       .  A
C809        C810   1.396       .  A
C809        H813   1.083       .  S
C810        O814   1.372       .  S
O812        H816   0.991       .  S
O814        H815   0.991       .  S
