geometry optimzed in LAMMPS
_audit_creation_date              2020-11-30 
_audit_creation_method            'lammps2cif' 
_symmetry_space_group_name_H-M    'P1' 
_symmetry_Int_Tables_number       1 
_symmetry_cell_setting            triclinic 
loop_ 
_symmetry_equiv_pos_as_xyz 
  x,y,z 
_cell_length_a                    48.99010284 
_cell_length_b                    49.09496578980108 
_cell_length_c                    39.773229417012814 
_cell_angle_alpha                 89.78378788354244 
_cell_angle_beta                  90.16707186745613 
_cell_angle_gamma                 120.49024668168245 
loop_ 
_atom_site_label 
_atom_site_type_symbol 
_atom_site_fract_x 
_atom_site_fract_y 
_atom_site_fract_z 
_atom_site_charge 
Zr1        Zr  0.25412255  0.82805561  0.21031866     2.17500
O2          O  0.30413882  0.87267840  0.22981057    -0.51600
O3          O  0.23959654  0.81398043  0.26923885    -0.74800
O4          O  0.25069708  0.87504436  0.22171016    -0.81600
O5          O  0.29977600  0.78745037  0.18345628    -0.83400
O6          O  0.20848646  0.87204811  0.19445478    -0.79000
O7          O  0.30256144  0.82568413  0.21781170    -0.90600
O8          O  0.19393252  0.76646644  0.27100091    -0.76600
O9          O  0.19813759  0.80546741  0.21358939    -0.86100
O10         O  0.23206159  0.77220040  0.21208538    -0.85800
O11         O  0.23988898  0.84605783  0.16029327    -0.72500
O12         O  0.27041372  0.81469684  0.15918932    -0.84700
Zr13       Zr  0.17654855  0.75356513  0.11308858     2.26400
Zr14       Zr  0.18330521  0.82236627  0.16366517     2.06300
Zr15       Zr  0.24685710  0.75863328  0.16030585     2.10000
Zr16       Zr  0.17623573  0.74964861  0.21402882     1.78800
O17         O  0.28464511  0.75462848  0.12407756    -0.93500
O18         O  0.13150116  0.74910587  0.24137106    -0.41300
O19         O  0.19044306  0.73491190  0.16252988    -0.77900
O20         O  0.16003054  0.76602131  0.16495395    -0.96600
O21         O  0.19932009  0.80948366  0.11213931    -0.89900
O22         O  0.23240113  0.77540786  0.11012289    -0.92700
C23         C  0.21715169  0.79046797  0.28514538     1.01000
C24         C  0.31442253  0.81013447  0.20443841     1.14000
C25         C  0.23309629  0.88643493  0.21333322     1.04700
O26         O  0.14378243  0.81842042  0.20343995    -0.94900
O27         O  0.13318093  0.79857258  0.13321783    -0.90600
O28         O  0.12875329  0.75658189  0.10453879    -0.83800
C29         C  0.11799232  0.77437821  0.11404964     1.11400
O30         O  0.30392413  0.88180845  0.11770367    -0.96900
Zr31       Zr  0.25518938  0.83126616  0.10975204     1.88900
O32         O  0.19130949  0.76985296  0.05483660    -0.73500
O33         O  0.18032806  0.86137907  0.12820845    -0.52800
O34         O  0.25378118  0.87419095  0.08049183    -0.97400
O35         O  0.29994543  0.82947747  0.08545719    -0.54700
O36         O  0.23812925  0.81597824  0.05269019    -0.74000
C37         C  0.21404985  0.79278799  0.03869277     0.98300
O38         O  0.12809430  0.71157878  0.08746648    -0.62800
O39         O  0.24645372  0.72042111  0.20001144    -0.57600
O40         O  0.17849220  0.70519742  0.10292712    -0.94300
O41         O  0.22129547  0.70941475  0.12994515    -0.92800
O42         O  0.18009310  0.70531046  0.23595832    -0.93100
O43         O  0.12684072  0.69912198  0.21087491    -0.91900
C44         C  0.19675558  0.69450056  0.11121287     1.17200
H45         H  0.23984138  0.76601513  0.23124467     0.33100
H46         H  0.13724530  0.75565889  0.16635121     0.44000
H47         H  0.23814588  0.76798666  0.09047343     0.37500
H48         H  0.25032829  0.86883032  0.15950923     0.34000
H49         H  0.12883850  0.73786208  0.26292821     0.25800
H50         H  0.16615928  0.86679986  0.14046295     0.31700
H51         H  0.24683256  0.88390200  0.09767721     0.37600
H52         H  0.18470099  0.70963663  0.26021895     0.32100
H53         H  0.25569834  0.70965753  0.18745201     0.30900
H54         H  0.28767378  0.73800451  0.13451546     0.32600
H55         H  0.30007040  0.83484105  0.06141237     0.31600
H56         H  0.11638879  0.70045728  0.19010075     0.35600
H57         H  0.13462609  0.70736142  0.06547089     0.28300
H58         H  0.29924376  0.88025384  0.25069350     0.32500
H59         H  0.31310561  0.88871334  0.09496205     0.35400
H60         H  0.26268346  0.73316384  0.21709070     0.28000
H61         H  0.12159268  0.69232793  0.10109468     0.40900
H62         H  0.13753380  0.83344816  0.19489577     0.30900
H63         H  0.13955764  0.77133228  0.24796452     0.38600
H64         H  0.29371138  0.80689832  0.08545622     0.30400
H65         H  0.20152675  0.88062966  0.12969249     0.30500
H66         H  0.30977009  0.88970694  0.21305786     0.30700
Zr67       Zr  0.25534649  0.82443900  0.71152266     2.17500
O68         O  0.29934960  0.87264230  0.73523614    -0.51600
O69         O  0.23962696  0.80903028  0.76962951    -0.74800
O70         O  0.25198618  0.87109338  0.72362669    -0.81600
O71         O  0.29949677  0.78161880  0.68846886    -0.83400
O72         O  0.20950645  0.86797203  0.69692347    -0.79000
O73         O  0.30380288  0.82217422  0.71970628    -0.90600
O74         O  0.19265197  0.76284681  0.77131576    -0.76600
O75         O  0.19957452  0.80340654  0.71295216    -0.86100
O76         O  0.23180196  0.76841487  0.71340668    -0.85800
O77         O  0.24305355  0.84325996  0.66102602    -0.72500
O78         O  0.27286036  0.81102007  0.66128645    -0.84700
Zr79       Zr  0.17938071  0.75088379  0.61303354     2.26400
Zr80       Zr  0.18670091  0.82080192  0.66220503     2.06300
Zr81       Zr  0.24777502  0.75461464  0.66251906     2.10000
Zr82       Zr  0.17603668  0.74752826  0.71387686     1.78800
O83         O  0.28345576  0.74970607  0.62376684    -0.93500
O84         O  0.13346054  0.75183460  0.74002552    -0.41300
O85         O  0.19184221  0.73276156  0.66368999    -0.77900
O86         O  0.16169537  0.76423225  0.66355432    -0.96600
O87         O  0.20307236  0.80686475  0.61167609    -0.89900
O88         O  0.23521653  0.77196682  0.61162044    -0.92700
C89         C  0.21627667  0.78644639  0.78545527     1.01000
C90         C  0.31485694  0.80524243  0.70821622     1.14000
C91         C  0.23372980  0.88196230  0.71634790     1.04700
O92         O  0.14390926  0.81765141  0.69614829    -0.94900
O93         O  0.13874731  0.79997286  0.62890748    -0.90600
O94         O  0.13484007  0.75847785  0.59975443    -0.83800
C95         C  0.12448854  0.77686980  0.60830621     1.11400
O96         O  0.30868896  0.87771108  0.61819828    -0.96900
Zr97       Zr  0.25883210  0.82802818  0.61114304     1.88900
O98         O  0.19606816  0.76632159  0.55478012    -0.73500
O99         O  0.19191064  0.86316637  0.62571423    -0.52800
O100        O  0.25788070  0.87275438  0.58563805    -0.97400
O101        O  0.30281807  0.82560074  0.58578768    -0.54700
O102        O  0.24226608  0.81318612  0.55382898    -0.74000
C103        C  0.21898122  0.78972276  0.53916517     0.98300
O104        O  0.13334435  0.70330727  0.59120190    -0.62800
O105        O  0.24961630  0.71761083  0.70213778    -0.57600
O106        O  0.17764020  0.70029415  0.60645769    -0.94300
O107        O  0.21830475  0.70295760  0.63662451    -0.92800
O108        O  0.17384365  0.70105482  0.73878847    -0.93100
O109        O  0.12524784  0.69896131  0.70724209    -0.91900
C110        C  0.19380541  0.68812902  0.61774081     1.17200
H111        H  0.23889421  0.76177274  0.73279665     0.33100
H112        H  0.13890729  0.75452603  0.66369056     0.44000
H113        H  0.24129511  0.76439321  0.59229359     0.37500
H114        H  0.25369737  0.86601719  0.66073487     0.34000
H115        H  0.12656975  0.73698548  0.75930380     0.25800
H116        H  0.17601506  0.86822267  0.63420433     0.31700
H117        H  0.23569088  0.86420032  0.57826151     0.37600
H118        H  0.19311270  0.70936469  0.75288965     0.32100
H119        H  0.22741549  0.70003914  0.70395911     0.30900
H120        H  0.28407034  0.73086929  0.63165243     0.32600
H121        H  0.29290574  0.80663194  0.57127710     0.31600
H122        H  0.12325013  0.69495360  0.68272335     0.35600
H123        H  0.11536259  0.69948318  0.60576075     0.28300
H124        H  0.30502761  0.86619303  0.75653705     0.32500
H125        H  0.31658403  0.88523622  0.59515045     0.35400
H126        H  0.26069467  0.70847569  0.68997118     0.28000
H127        H  0.12874090  0.70929610  0.56900647     0.40900
H128        H  0.14324689  0.83692621  0.69027956     0.30900
H129        H  0.14404601  0.77304675  0.75048347     0.38600
H130        H  0.31230027  0.81989654  0.60456880     0.30400
H131        H  0.21261026  0.88181675  0.63162660     0.30500
H132        H  0.31763679  0.87907613  0.72008642     0.30700
Zr133      Zr  0.58214188  0.74276889  0.37605434     2.17500
O134        O  0.57917115  0.69348472  0.39289243    -0.51600
O135        O  0.58176062  0.75610318  0.43494450    -0.74800
O136        O  0.63387703  0.74930220  0.38991227    -0.81600
O137        O  0.49446429  0.69669082  0.35036829    -0.83400
O138        O  0.67286678  0.79265643  0.36329681    -0.79000
O139        O  0.53073957  0.69378118  0.38349137    -0.90600
O140        O  0.57747596  0.79998413  0.43739639    -0.76600
O141        O  0.61496044  0.79879157  0.37985046    -0.86100
O142        O  0.54723213  0.76325277  0.37730901    -0.85800
O143        O  0.61538086  0.75885856  0.32691627    -0.72500
O144        O  0.55303855  0.72678818  0.32426091    -0.84700
Zr145      Zr  0.58370905  0.82018845  0.27969902     2.26400
Zr146      Zr  0.64741262  0.81548161  0.33037342     2.06300
Zr147      Zr  0.51905505  0.74853142  0.32515045     2.10000
Zr148      Zr  0.57994095  0.81901451  0.38066386     1.78800
O149        O  0.48132157  0.71195397  0.28419413    -0.93500
O150        O  0.62457308  0.86187552  0.41035806    -0.41300
O151        O  0.55070638  0.80486241  0.32893652    -0.77900
O152        O  0.61284859  0.83675585  0.33184934    -0.96600
O153        O  0.61878301  0.79994568  0.27831120    -0.89900
O154        O  0.55113550  0.76425677  0.27578017    -0.92700
C155        C  0.57928797  0.77731808  0.45116463     1.01000
C156        C  0.50264421  0.68198989  0.37100356     1.14000
C157        C  0.66312034  0.76828228  0.38237538     1.04700
O158        O  0.68567499  0.85672367  0.36730494    -0.94900
O159        O  0.67320297  0.86593998  0.30032162    -0.90600
O160        O  0.63434907  0.86893224  0.27232901    -0.83800
C161        C  0.66333884  0.88061646  0.28158572     1.11400
O162        O  0.59107734  0.69708663  0.28016880    -0.96900
Zr163      Zr  0.58617780  0.74397241  0.27559886     1.88900
O164        O  0.58249057  0.80446931  0.22122766    -0.73500
O165        O  0.68778113  0.81474732  0.29538571    -0.52800
O166        O  0.63659593  0.75495722  0.25192094    -0.97400
O167        O  0.54283559  0.69701515  0.24941610    -0.54700
O168        O  0.58423644  0.75927754  0.21857070    -0.74000
C169        C  0.58281537  0.78211638  0.20485653     0.98300
O170        O  0.59058265  0.86760256  0.25175468    -0.62800
O171        O  0.47764353  0.74281429  0.36341508    -0.57600
O172        O  0.53326709  0.81897430  0.27226757    -0.94300
O173        O  0.49448670  0.77438607  0.29683287    -0.92800
O174        O  0.53170036  0.81435330  0.40358817    -0.93100
O175        O  0.58074379  0.86894238  0.37694330    -0.91900
C176        C  0.50401854  0.79985194  0.27973008     1.17200
H177        H  0.53276895  0.75479940  0.39604880     0.33100
H178        H  0.62485545  0.85950828  0.33360948     0.44000
H179        H  0.53775767  0.75796764  0.25607434     0.37500
H180        H  0.62840425  0.74927562  0.32659056     0.34000
H181        H  0.61528144  0.86509128  0.43097612     0.25800
H182        H  0.70776467  0.82717994  0.30812516     0.31700
H183        H  0.63167500  0.74691395  0.22859463     0.37600
H184        H  0.53806399  0.82504491  0.42567904     0.32100
H185        H  0.47650929  0.76223680  0.36036815     0.30900
H186        H  0.46028648  0.70646057  0.29312552     0.32600
H187        H  0.53167750  0.70491941  0.23521885     0.31600
H188        H  0.57620256  0.87065499  0.35299902     0.35600
H189        H  0.57673424  0.86006183  0.23166241     0.28300
H190        H  0.58922213  0.69750849  0.41537856     0.32500
H191        H  0.59515196  0.69266593  0.25702713     0.35400
H192        H  0.45767118  0.72576474  0.35357052     0.28000
H193        H  0.58088302  0.87635271  0.26682712     0.40900
H194        H  0.67808823  0.87187856  0.36943908     0.30900
H195        H  0.63718770  0.85257664  0.41854594     0.38600
H196        H  0.52789257  0.68565636  0.26802530     0.30400
H197        H  0.68333800  0.79271765  0.29664052     0.30500
H198        H  0.59370040  0.69097974  0.37766569     0.30700
Zr199      Zr  0.58566464  0.74762116  0.87897331     2.17500
O200        O  0.58233439  0.70093178  0.90507766    -0.51600
O201        O  0.58364791  0.76369657  0.93625191    -0.74800
O202        O  0.63706541  0.75422112  0.89279979    -0.81600
O203        O  0.49891467  0.69924315  0.85395213    -0.83400
O204        O  0.67650799  0.79630779  0.86522441    -0.79000
O205        O  0.53593609  0.69737977  0.88665636    -0.90600
O206        O  0.58149656  0.80868331  0.93580006    -0.76600
O207        O  0.61823113  0.80381179  0.88001066    -0.86100
O208        O  0.55027035  0.76740156  0.87757726    -0.85800
O209        O  0.61869584  0.76101227  0.82974003    -0.72500
O210        O  0.55675981  0.72843372  0.82748111    -0.84700
Zr211      Zr  0.58632140  0.81940298  0.77744469     2.26400
Zr212      Zr  0.65058985  0.81774226  0.83043354     2.06300
Zr213      Zr  0.52224975  0.74944256  0.82557778     2.10000
Zr214      Zr  0.58258280  0.82340399  0.87781637     1.78800
O215        O  0.48664784  0.71129174  0.78435991    -0.93500
O216        O  0.62562332  0.86979452  0.90509110    -0.41300
O217        O  0.55346503  0.80581814  0.82647354    -0.77900
O218        O  0.61558382  0.83856653  0.82928476    -0.96600
O219        O  0.62182176  0.79967150  0.77866338    -0.89900
O220        O  0.55391162  0.76329070  0.77596175    -0.92700
C221        C  0.58217099  0.78608585  0.95109211     1.01000
C222        C  0.50769578  0.68512480  0.87467824     1.14000
C223        C  0.66633966  0.77239552  0.88511909     1.04700
O224        O  0.69159499  0.85972428  0.86450747    -0.94900
O225        O  0.67500596  0.86809092  0.80013422    -0.90600
O226        O  0.63651760  0.86779707  0.76776067    -0.83800
C227        C  0.66498395  0.88106131  0.77909398     1.11400
O228        O  0.59637814  0.69802831  0.78455049    -0.96900
Zr229      Zr  0.58939070  0.74356778  0.77840230     1.88900
O230        O  0.58404497  0.80094113  0.71991895    -0.73500
O231        O  0.68812947  0.81480129  0.79278318    -0.52800
O232        O  0.63799903  0.75188909  0.75226386    -0.97400
O233        O  0.54478766  0.69429617  0.75763578    -0.54700
O234        O  0.58601005  0.75584368  0.72035732    -0.74000
C235        C  0.58417468  0.77780262  0.70500431     0.98300
O236        O  0.59224744  0.86616461  0.74879652    -0.62800
O237        O  0.47790929  0.74086928  0.86075678    -0.57600
O238        O  0.53608385  0.81846901  0.77072554    -0.94300
O239        O  0.49780618  0.77601487  0.79886658    -0.92800
O240        O  0.53377757  0.81915893  0.89843723    -0.93100
O241        O  0.58122947  0.87182053  0.86892317    -0.91900
C242        C  0.50731482  0.80080911  0.78066695     1.17200
H243        H  0.53580135  0.75962330  0.89631885     0.33100
H244        H  0.62719179  0.86134714  0.82997594     0.44000
H245        H  0.54043964  0.75603533  0.75639691     0.37500
H246        H  0.63168739  0.75143961  0.83036182     0.34000
H247        H  0.61546257  0.87448898  0.92391290     0.25800
H248        H  0.70917510  0.83159399  0.80073895     0.31700
H249        H  0.64638064  0.77190898  0.73949684     0.37600
H250        H  0.52528511  0.80175871  0.91512229     0.32100
H251        H  0.48287954  0.76230442  0.86746969     0.30900
H252        H  0.46513017  0.70459160  0.79273728     0.32600
H253        H  0.53708413  0.70028654  0.73749781     0.31600
H254        H  0.58015826  0.87353222  0.84419676     0.35600
H255        H  0.57769145  0.85823136  0.72927401     0.28300
H256        H  0.59305643  0.70800439  0.92712687     0.32500
H257        H  0.59726318  0.69123669  0.76135409     0.35400
H258        H  0.45966671  0.73334427  0.84522586     0.28000
H259        H  0.58313382  0.87531513  0.76415147     0.40900
H260        H  0.68086305  0.86982583  0.87545369     0.30900
H261        H  0.63848071  0.86200617  0.91620187     0.38600
H262        H  0.52787277  0.68829225  0.77454655     0.30400
H263        H  0.68728228  0.79479882  0.79880163     0.30500
H264        H  0.59606906  0.69577387  0.89156526     0.30700
Zr265      Zr  0.24440971  0.41723139  0.93901947     2.17500
O266        O  0.29114045  0.42142976  0.91212136    -0.51600
O267        O  0.22905243  0.41930040  0.88082822    -0.74800
O268        O  0.24042810  0.36624759  0.92921319    -0.81600
O269        O  0.29147015  0.50524382  0.96080369    -0.83400
O270        O  0.20163898  0.32811708  0.96129357    -0.79000
O271        O  0.29524908  0.46632962  0.93445593    -0.90600
O272        O  0.17980751  0.41281046  0.88088818    -0.76600
O273        O  0.18856603  0.38181583  0.93954725    -0.86100
O274        O  0.22135586  0.44989926  0.93679734    -0.85800
O275        O  0.23391354  0.38796628  0.99097071    -0.72500
O276        O  0.26295010  0.44975556  0.98818953    -0.84700
Zr277      Zr  0.17212970  0.41863526  0.03873660     2.26400
Zr278      Zr  0.17750800  0.35345088  0.99164295     2.06300
Zr279      Zr  0.23942424  0.48188427  0.98620565     2.10000
Zr280      Zr  0.16555620  0.41444863  0.93850110     1.78800
O281        O  0.27673608  0.52343523  0.02355881    -0.93500
O282        O  0.12034027  0.36685529  0.91574278    -0.41300
O283        O  0.18317628  0.44768728  0.98701682    -0.77900
O284        O  0.15313275  0.38522006  0.98975498    -0.96600
O285        O  0.19529648  0.38605717  0.04071374    -0.89900
O286        O  0.22801645  0.45372563  0.03841591    -0.92700
C287        C  0.20438895  0.41624410  0.86576340     1.01000
C288        C  0.30690123  0.49509100  0.94411448     1.14000
C289        C  0.22443069  0.33766404  0.94011128     1.04700
O290        O  0.13650967  0.31284753  0.95630677    -0.94900
O291        O  0.12988954  0.32815005  0.02578262    -0.90600
O292        O  0.12785447  0.36702500  0.05462419    -0.83800
C293        C  0.11676115  0.33790910  0.04664180     1.11400
O294        O  0.30074507  0.42218342  0.03051069    -0.96900
Zr295      Zr  0.25095343  0.42098384  0.03967211     1.88900
O296        O  0.18978013  0.42220821  0.09690881    -0.73500
O297        O  0.17880268  0.31520304  0.02985024    -0.52800
O298        O  0.25273926  0.37746009  0.06710880    -0.97400
O299        O  0.29467116  0.46895815  0.06389800    -0.54700
O300        O  0.23402157  0.41836855  0.09696021    -0.74000
C301        C  0.21174223  0.41983182  0.11197372     0.98300
O302        O  0.12236065  0.41176292  0.06012034    -0.62800
O303        O  0.24224134  0.52021642  0.94517482    -0.57600
O304        O  0.17261658  0.46896299  0.04430863    -0.94300
O305        O  0.21182319  0.50578215  0.01128740    -0.92800
O306        O  0.16354844  0.45759709  0.91051868    -0.93100
O307        O  0.11572839  0.41278866  0.94859851    -0.91900
C308        C  0.18854677  0.49698832  0.03158925     1.17200
H309        H  0.22772710  0.46307557  0.91696272     0.33100
H310        H  0.13034717  0.37206740  0.99029248     0.44000
H311        H  0.23471873  0.46810516  0.05725505     0.37500
H312        H  0.24485326  0.37626464  0.99179025     0.34000
H313        H  0.11640743  0.37328130  0.89345967     0.25800
H314        H  0.16696105  0.29469228  0.01804007     0.31700
H315        H  0.23096805  0.36339563  0.07555805     0.37600
H316        H  0.15211341  0.44841977  0.88918509     0.32100
H317        H  0.22035010  0.51626985  0.94363345     0.30900
H318        H  0.28254435  0.54341070  0.01167944     0.32600
H319        H  0.28493340  0.47586854  0.08112230     0.31600
H320        H  0.11511627  0.41517455  0.97325659     0.35600
H321        H  0.12801631  0.42563933  0.08005112     0.28300
H322        H  0.28349772  0.40883016  0.89123768     0.32500
H323        H  0.31141022  0.42698764  0.05268651     0.35400
H324        H  0.25434579  0.54092800  0.95655035     0.28000
H325        H  0.11504483  0.42135658  0.04301440     0.40900
H326        H  0.13353384  0.29268266  0.96530974     0.30900
H327        H  0.12859812  0.35265780  0.91056445     0.38600
H328        H  0.30130915  0.48497993  0.04579957     0.30400
H329        H  0.20109820  0.32024594  0.02967944     0.30500
H330        H  0.29817615  0.40980996  0.92682488     0.30700
Zr331      Zr  0.24247310  0.41117168  0.44205833     2.17500
O332        O  0.29143640  0.41479076  0.42261800    -0.51600
O333        O  0.23013624  0.41089314  0.38259804    -0.74800
O334        O  0.23826892  0.35994683  0.43331108    -0.81600
O335        O  0.28707599  0.49947170  0.46186046    -0.83400
O336        O  0.19651421  0.32127568  0.46209153    -0.79000
O337        O  0.29229619  0.46126848  0.43597069    -0.90600
O338        O  0.18368903  0.41027341  0.37822160    -0.76600
O339        O  0.18671995  0.37588565  0.43916993    -0.86100
O340        O  0.21948071  0.44369513  0.43579963    -0.85800
O341        O  0.22858193  0.38172489  0.49397134    -0.72500
O342        O  0.25804609  0.44399762  0.49107212    -0.84700
Zr343      Zr  0.16420676  0.41247703  0.53482162     2.26400
Zr344      Zr  0.17213565  0.34728686  0.49123925     2.06300
Zr345      Zr  0.23407682  0.47569029  0.48511134     2.10000
Zr346      Zr  0.16371221  0.40830259  0.43410234     1.78800
O347        O  0.27243975  0.52276994  0.51543089    -0.93500
O348        O  0.12454542  0.36050195  0.40523953    -0.41300
O349        O  0.17782384  0.44165498  0.48275628    -0.77900
O350        O  0.14826594  0.37929419  0.48570539    -0.96600
O351        O  0.18706884  0.37989650  0.54029079    -0.89900
O352        O  0.21999476  0.44745146  0.53725152    -0.92700
C353        C  0.20780697  0.41062306  0.36535785     1.01000
C354        C  0.30318451  0.49005163  0.44520503     1.14000
C355        C  0.22076290  0.33107298  0.44278121     1.04700
O356        O  0.13048285  0.30804039  0.45530934    -0.94900
O357        O  0.12362969  0.32223353  0.52448100    -0.90600
O358        O  0.11982879  0.36119737  0.55085561    -0.83800
C359        C  0.10935248  0.33198373  0.54380321     1.11400
O360        O  0.29259156  0.41513192  0.54097667    -0.96900
Zr361      Zr  0.24268943  0.41482254  0.54245396     1.88900
O362        O  0.17701257  0.41483468  0.59465283    -0.73500
O363        O  0.17404932  0.30973717  0.52995422    -0.52800
O364        O  0.23971604  0.36992019  0.57222656    -0.97400
O365        O  0.28672957  0.46259765  0.56654112    -0.54700
O366        O  0.22368552  0.41585364  0.59795325    -0.74000
C367        C  0.19979638  0.41543888  0.61145455     0.98300
O368        O  0.11246172  0.40698850  0.54434088    -0.62800
O369        O  0.23047727  0.50848244  0.44122330    -0.57600
O370        O  0.16812568  0.46341306  0.54598277    -0.94300
O371        O  0.20968798  0.50042232  0.51573051    -0.92800
O372        O  0.16057322  0.45060013  0.40549400    -0.93100
O373        O  0.11050931  0.40029634  0.43819420    -0.91900
C374        C  0.18642319  0.49206053  0.53605783     1.17200
H375        H  0.22720082  0.45681999  0.41593147     0.33100
H376        H  0.12545013  0.36605001  0.48515858     0.44000
H377        H  0.22577456  0.46186201  0.55594901     0.37500
H378        H  0.23921128  0.36976671  0.49609126     0.34000
H379        H  0.11844887  0.36816754  0.38513353     0.25800
H380        H  0.16092083  0.28886969  0.51916713     0.31700
H381        H  0.21733147  0.35693317  0.57934262     0.37600
H382        H  0.15584543  0.46150251  0.42345600     0.32100
H383        H  0.21122052  0.50930114  0.44677738     0.30900
H384        H  0.27429502  0.51495569  0.53780502     0.32600
H385        H  0.27687884  0.47118416  0.58160785     0.31600
H386        H  0.10957522  0.40783207  0.46098464     0.35600
H387        H  0.11373635  0.41604441  0.56689354     0.28300
H388        H  0.28602175  0.40226784  0.40164878     0.32500
H389        H  0.29906235  0.41611840  0.56476709     0.35400
H390        H  0.24823563  0.53005972  0.44599139     0.28000
H391        H  0.11108319  0.42177476  0.52838218     0.40900
H392        H  0.11344138  0.31326364  0.45591367     0.30900
H393        H  0.13659642  0.35098780  0.39611398     0.38600
H394        H  0.29523541  0.47777189  0.54757509     0.30400
H395        H  0.19601473  0.31389042  0.52850567     0.30500
H396        H  0.29653998  0.40297782  0.43926855     0.30700
Zr397      Zr  0.42015267  0.24239743  0.39039235     2.17500
O398        O  0.42262126  0.28994898  0.41244122    -0.51600
O399        O  0.41919370  0.22572130  0.44812067    -0.74800
O400        O  0.36807884  0.23664552  0.40076893    -0.81600
O401        O  0.50843715  0.28900806  0.37190879    -0.83400
O402        O  0.33095227  0.19720650  0.36827762    -0.79000
O403        O  0.47028003  0.29110150  0.40216109    -0.90600
O404        O  0.42329159  0.18174744  0.44884022    -0.76600
O405        O  0.38686019  0.18623985  0.39049321    -0.86100
O406        O  0.45460053  0.22124384  0.39219691    -0.85800
O407        O  0.39043353  0.23056983  0.33881719    -0.72500
O408        O  0.45308689  0.26203793  0.34135723    -0.84700
Zr409      Zr  0.42397871  0.17162279  0.29025404     2.26400
Zr410      Zr  0.35776879  0.17392479  0.33874152     2.06300
Zr411      Zr  0.48621075  0.23935370  0.34255367     2.10000
Zr412      Zr  0.42150850  0.16540659  0.39121913     1.78800
O413        O  0.52750807  0.27917502  0.30669303    -0.93500
O414        O  0.37556819  0.12051000  0.41705981    -0.41300
O415        O  0.45376408  0.18299871  0.34168125    -0.77900
O416        O  0.39154810  0.15161243  0.34019360    -0.96600
O417        O  0.38992893  0.19316500  0.28918614    -0.89900
O418        O  0.45755663  0.22759684  0.29073892    -0.92700
C419        C  0.42131653  0.20386875  0.46351650     1.01000
C420        C  0.49902900  0.30297926  0.39192581     1.14000
C421        C  0.33962044  0.21984639  0.38949389     1.04700
O422        O  0.31861088  0.13350365  0.37591329    -0.94900
O423        O  0.33351998  0.12565796  0.30559695    -0.90600
O424        O  0.37329208  0.12412797  0.27800421    -0.83800
C425        C  0.34396563  0.11232223  0.28591429     1.11400
O426        O  0.42452875  0.29862115  0.30002043    -0.96900
Zr427      Zr  0.42354181  0.24910890  0.29031503     1.88900
O428        O  0.42617091  0.19031361  0.23250751    -0.73500
O429        O  0.31762789  0.17144658  0.30050908    -0.52800
O430        O  0.37845074  0.24933768  0.26465581    -0.97400
O431        O  0.47049769  0.29399164  0.26579137    -0.54700
O432        O  0.42239116  0.23437494  0.23261670    -0.74000
C433        C  0.42446714  0.21263032  0.21738593     0.98300
O434        O  0.41996250  0.12670149  0.25968557    -0.62800
O435        O  0.52461563  0.24118244  0.38304066    -0.57600
O436        O  0.47507714  0.17310562  0.28542820    -0.94300
O437        O  0.51238323  0.21512178  0.31478078    -0.92800
O438        O  0.46730555  0.16604338  0.41610120    -0.93100
O439        O  0.42047537  0.11559827  0.38460748    -0.91900
C440        C  0.50375047  0.19094978  0.29593586     1.17200
H441        H  0.46798292  0.22830335  0.41186570     0.33100
H442        H  0.37925587  0.12881314  0.34024454     0.44000
H443        H  0.47191729  0.23478193  0.27185223     0.37500
H444        H  0.37792966  0.24068445  0.33800003     0.34000
H445        H  0.38159592  0.12063375  0.44086859     0.25800
H446        H  0.29719462  0.15594929  0.31095040     0.31700
H447        H  0.36335569  0.22693040  0.25918557     0.37600
H448        H  0.48221376  0.17104703  0.39718313     0.32100
H449        H  0.52687854  0.22271843  0.37790901     0.30900
H450        H  0.54669164  0.28932910  0.32102853     0.32600
H451        H  0.47985197  0.28475659  0.25092790     0.31600
H452        H  0.42934692  0.11692569  0.36191644     0.35600
H453        H  0.43435144  0.13586724  0.24016646     0.28300
H454        H  0.41073636  0.28361412  0.43390923     0.32500
H455        H  0.42620284  0.30796188  0.27746639     0.35400
H456        H  0.54508627  0.25967954  0.37618312     0.28000
H457        H  0.42975668  0.11758694  0.27425178     0.40900
H458        H  0.31882807  0.11397375  0.37039567     0.30900
H459        H  0.35923182  0.12666390  0.41786912     0.38600
H460        H  0.48563878  0.30320731  0.28472007     0.30400
H461        H  0.31872393  0.19204500  0.30289129     0.30500
H462        H  0.40979391  0.29483084  0.39697515     0.30700
Zr463      Zr  0.41776551  0.24310128  0.88712409     2.17500
O464        O  0.42084085  0.29144307  0.90749617    -0.51600
O465        O  0.42017148  0.23079820  0.94621594    -0.74800
O466        O  0.36613266  0.23769889  0.89795926    -0.81600
O467        O  0.50557698  0.28936704  0.86247492    -0.83400
O468        O  0.32681849  0.19453766  0.87181273    -0.79000
O469        O  0.46843196  0.29291831  0.89299240    -0.90600
O470        O  0.42609499  0.18792544  0.94988497    -0.76600
O471        O  0.38470812  0.18712903  0.89198163    -0.86100
O472        O  0.45253136  0.22255820  0.88990700    -0.85800
O473        O  0.38520989  0.22695756  0.83721579    -0.72500
O474        O  0.44733750  0.25904939  0.83567144    -0.84700
Zr475      Zr  0.41666134  0.16501297  0.79271884     2.26400
Zr476      Zr  0.35276145  0.17047715  0.84198785     2.06300
Zr477      Zr  0.48114297  0.23723260  0.83818674     2.10000
Zr478      Zr  0.41962987  0.16669688  0.89365888     1.78800
O479        O  0.52125606  0.27486214  0.79968215    -0.93500
O480        O  0.37466625  0.12472992  0.92392723    -0.41300
O481        O  0.44899086  0.18114456  0.84232118    -0.77900
O482        O  0.38705977  0.14879973  0.84451333    -0.96600
O483        O  0.38178678  0.18554861  0.79018241    -0.89900
O484        O  0.44976852  0.22087566  0.78828195    -0.92700
C485        C  0.42432793  0.21077840  0.96302227     1.01000
C486        C  0.49685429  0.30443394  0.88175630     1.14000
C487        C  0.33686458  0.21943599  0.88997960     1.04700
O488        O  0.31297204  0.13150632  0.87980139    -0.94900
O489        O  0.32795961  0.11916281  0.81436823    -0.90600
O490        O  0.36517967  0.11882264  0.78051010    -0.83800
C491        C  0.33706826  0.10611297  0.79266013     1.11400
O492        O  0.41325792  0.29001942  0.79013669    -0.96900
Zr493      Zr  0.41510705  0.24142644  0.78626896     1.88900
O494        O  0.41670637  0.17773194  0.73343254    -0.73500
O495        O  0.31337050  0.16899324  0.80337997    -0.52800
O496        O  0.36820397  0.23666034  0.75912326    -0.97400
O497        O  0.46086288  0.28625161  0.76001117    -0.54700
O498        O  0.41604492  0.22352836  0.73009978    -0.74000
C499        C  0.41683659  0.20023906  0.71673760     0.98300
O500        O  0.41984270  0.11816682  0.77964315    -0.62800
O501        O  0.52021968  0.23999154  0.87823080    -0.57600
O502        O  0.46735082  0.16850331  0.78086848    -0.94300
O503        O  0.50474474  0.21046964  0.81044766    -0.92800
O504        O  0.46739772  0.16700811  0.91156174    -0.93100
O505        O  0.41537536  0.11508488  0.89254258    -0.91900
C506        C  0.49597778  0.18659295  0.79108650     1.17200
H507        H  0.46701146  0.23123213  0.90863290     0.33100
H508        H  0.37504812  0.12600749  0.84612283     0.44000
H509        H  0.46326777  0.22681198  0.76870470     0.37500
H510        H  0.37241720  0.23673076  0.83591282     0.34000
H511        H  0.38342347  0.12322039  0.94586525     0.25800
H512        H  0.29315871  0.15780649  0.81593920     0.31700
H513        H  0.35741485  0.21540707  0.74876654     0.37600
H514        H  0.47138929  0.17523051  0.93482802     0.32100
H515        H  0.52132762  0.22067975  0.87429195     0.30900
H516        H  0.54110921  0.27573172  0.80661966     0.32600
H517        H  0.46882367  0.27698075  0.74339324     0.31600
H518        H  0.42201814  0.11335975  0.86953560     0.35600
H519        H  0.40494096  0.10142103  0.79518568     0.28300
H520        H  0.40921195  0.28582121  0.92909668     0.32500
H521        H  0.41302558  0.29663239  0.76663222     0.35400
H522        H  0.54073887  0.25750795  0.86998580     0.28000
H523        H  0.41033936  0.11134410  0.75700853     0.40900
H524        H  0.31908083  0.11527608  0.88281670     0.30900
H525        H  0.36110942  0.13367322  0.92943619     0.38600
H526        H  0.47726420  0.29479594  0.77781662     0.30400
H527        H  0.31824359  0.19115510  0.80198402     0.30500
H528        H  0.40791118  0.29598545  0.89178165     0.30700
Zr529      Zr  0.83474905  0.24801344  0.12562853     2.17500
O530        O  0.87899991  0.29593688  0.10165875    -0.51600
O531        O  0.81842147  0.23438630  0.06714526    -0.74800
O532        O  0.88023679  0.24263002  0.11211740    -0.81600
O533        O  0.79521838  0.29391799  0.15158771    -0.83400
O534        O  0.87776381  0.20118634  0.14041635    -0.79000
O535        O  0.83559038  0.29812382  0.11983376    -0.90600
O536        O  0.77288565  0.18699260  0.06621551    -0.76600
O537        O  0.81180606  0.19204416  0.12308339    -0.86100
O538        O  0.77888627  0.22649399  0.12497532    -0.85800
O539        O  0.85321004  0.23395187  0.17540431    -0.72500
O540        O  0.82280700  0.26487398  0.17724968    -0.84700
Zr541      Zr  0.75988686  0.17133598  0.22433923     2.26400
Zr542      Zr  0.82891959  0.17741041  0.17315829     2.06300
Zr543      Zr  0.76663042  0.24213479  0.17697316     2.10000
Zr544      Zr  0.75600805  0.17070510  0.12330700     1.78800
O545        O  0.76553141  0.27973531  0.21592523    -0.93500
O546        O  0.75529908  0.12467892  0.09945095    -0.41300
O547        O  0.74208723  0.18585342  0.17467814    -0.77900
O548        O  0.77237682  0.15475971  0.17239232    -0.96600
O549        O  0.81594918  0.19302594  0.22492307    -0.89900
O550        O  0.78309797  0.22728526  0.22704253    -0.92700
C551        C  0.79574876  0.21091715  0.05156099     1.01000
C552        C  0.81900758  0.30933624  0.13199369     1.14000
C553        C  0.89149279  0.22492840  0.12026299     1.04700
O554        O  0.83098230  0.13833434  0.13741052    -0.94900
O555        O  0.80287569  0.12606627  0.20149591    -0.90600
O556        O  0.76317181  0.12366482  0.23333798    -0.83800
C557        C  0.77947712  0.11176110  0.22201839     1.11400
O558        O  0.89063051  0.29717294  0.22331529    -0.96900
Zr559      Zr  0.83897469  0.24892871  0.22665511     1.88900
O560        O  0.77539371  0.18668482  0.28298994    -0.73500
O561        O  0.86892089  0.18075500  0.21216262    -0.52800
O562        O  0.88265698  0.24628116  0.25274592    -0.97400
O563        O  0.83721247  0.29362872  0.25077489    -0.54700
O564        O  0.82303451  0.23204821  0.28370604    -0.74000
C565        C  0.79909122  0.20937123  0.29847769     0.98300
O566        O  0.71565685  0.12274417  0.24717085    -0.62800
O567        O  0.72828173  0.24498440  0.14009844    -0.57600
O568        O  0.71093565  0.17341841  0.23258041    -0.94300
O569        O  0.71581482  0.21596305  0.20449677    -0.92800
O570        O  0.71281409  0.17375693  0.09669526    -0.93100
O571        O  0.70430622  0.12277605  0.12723940    -0.91900
C572        C  0.70016382  0.19129192  0.22282311     1.17200
H573        H  0.77247700  0.23422973  0.10594629     0.33100
H574        H  0.76154661  0.13201997  0.17101036     0.44000
H575        H  0.77607589  0.23350919  0.24666683     0.37500
H576        H  0.87603490  0.24413969  0.17558194     0.34000
H577        H  0.75417652  0.12683883  0.07480564     0.25800
H578        H  0.87566702  0.16649732  0.20264796     0.31700
H579        H  0.87283527  0.22490740  0.26285879     0.37600
H580        H  0.71034961  0.18916573  0.11037123     0.32100
H581        H  0.72324680  0.25985066  0.15135440     0.30900
H582        H  0.74938993  0.28415412  0.20664582     0.32600
H583        H  0.81993479  0.28435889  0.26756479     0.31600
H584        H  0.70488705  0.11288406  0.14876364     0.35600
H585        H  0.70874942  0.12895836  0.26767561     0.28300
H586        H  0.88249497  0.28992831  0.07901755     0.32500
H587        H  0.89559342  0.30566068  0.24649425     0.35400
H588        H  0.74025253  0.25649162  0.11977449     0.28000
H589        H  0.69805483  0.11604026  0.23089882     0.40900
H590        H  0.84362877  0.13129005  0.15030251     0.30900
H591        H  0.77685193  0.12834702  0.10350041     0.38600
H592        H  0.82900273  0.30126583  0.23249866     0.30400
H593        H  0.88738186  0.20225009  0.20880130     0.30500
H594        H  0.89798514  0.30045041  0.11489507     0.30700
Zr595      Zr  0.83189986  0.24971523  0.62672106     2.17500
O596        O  0.87907496  0.29816575  0.60825136    -0.51600
O597        O  0.81688930  0.23636810  0.56807273    -0.74800
O598        O  0.87569083  0.24159544  0.61199758    -0.81600
O599        O  0.79394922  0.29789868  0.65193071    -0.83400
O600        O  0.87000816  0.19810407  0.63884354    -0.79000
O601        O  0.83235544  0.29950143  0.61868408    -0.90600
O602        O  0.76888416  0.19139778  0.56575424    -0.76600
O603        O  0.80574668  0.19360168  0.62248269    -0.86100
O604        O  0.77657155  0.23117980  0.62592215    -0.85800
O605        O  0.84856364  0.23301102  0.67577057    -0.72500
O606        O  0.82063029  0.26657077  0.67878442    -0.84700
Zr607      Zr  0.75396861  0.17317437  0.72286931     2.26400
Zr608      Zr  0.82137811  0.17646596  0.67159346     2.06300
Zr609      Zr  0.76495122  0.24674439  0.67832925     2.10000
Zr610      Zr  0.75044699  0.17520537  0.62241942     1.78800
O611        O  0.76797278  0.28469382  0.71959967    -0.93500
O612        O  0.74320910  0.12761626  0.59514858    -0.41300
O613        O  0.73789800  0.19054575  0.67422510    -0.77900
O614        O  0.76509537  0.15602430  0.67045636    -0.96600
O615        O  0.80943772  0.19211455  0.72392698    -0.89900
O616        O  0.77979053  0.22925971  0.72746816    -0.92700
C617        C  0.79339137  0.21427135  0.55192483     1.01000
C618        C  0.81690974  0.31191653  0.63107425     1.14000
C619        C  0.88515098  0.22219152  0.61942842     1.04700
O620        O  0.81989305  0.13657992  0.63418684    -0.94900
O621        O  0.79473765  0.12569763  0.70004263    -0.90600
O622        O  0.75433412  0.12380003  0.72970295    -0.83800
C623        C  0.77058409  0.11150088  0.71947090     1.11400
O624        O  0.88664416  0.29627153  0.72138946    -0.96900
Zr625      Zr  0.83520185  0.24816878  0.72744085     1.88900
O626        O  0.76932644  0.18686888  0.78166054    -0.73500
O627        O  0.85980085  0.17587610  0.71016249    -0.52800
O628        O  0.87665511  0.24049914  0.75153658    -0.97400
O629        O  0.83796174  0.29349699  0.75569052    -0.54700
O630        O  0.81840197  0.23043016  0.78423095    -0.74000
C631        C  0.79356863  0.20784888  0.79795988     0.98300
O632        O  0.70623126  0.13154760  0.75004911    -0.62800
O633        O  0.73034211  0.25552794  0.64147301    -0.57600
O634        O  0.70506768  0.17496704  0.72842212    -0.94300
O635        O  0.71326455  0.22064680  0.70471116    -0.92800
O636        O  0.71014183  0.18479900  0.59867270    -0.93100
O637        O  0.69701059  0.12979491  0.62669549    -0.91900
C638        C  0.69592963  0.19453795  0.72041478     1.17200
H639        H  0.77121097  0.24025654  0.60728355     0.33100
H640        H  0.75339389  0.13325581  0.66841686     0.44000
H641        H  0.77313209  0.23545758  0.74741356     0.37500
H642        H  0.87128599  0.24197628  0.67595540     0.34000
H643        H  0.73188376  0.12611195  0.57393936     0.25800
H644        H  0.86314432  0.15885809  0.70166892     0.31700
H645        H  0.86543804  0.22148969  0.76598168     0.37600
H646        H  0.72126221  0.20179525  0.58180410     0.32100
H647        H  0.71089899  0.23458192  0.63924023     0.30900
H648        H  0.74965929  0.28732802  0.71444303     0.32600
H649        H  0.81773243  0.28497698  0.76805691     0.31600
H650        H  0.69580257  0.12153863  0.64973083     0.35600
H651        H  0.71357358  0.12585069  0.77069595     0.28300
H652        H  0.88394875  0.29358786  0.58554709     0.32500
H653        H  0.89597701  0.30118431  0.74423775     0.35400
H654        H  0.72387693  0.26821368  0.65497772     0.28000
H655        H  0.69803370  0.11278851  0.73530295     0.40900
H656        H  0.81682660  0.14288856  0.61145421     0.30900
H657        H  0.76471559  0.13309675  0.58788833     0.38600
H658        H  0.83636338  0.30631585  0.73734759     0.30400
H659        H  0.87994539  0.19565389  0.70539607     0.30500
H660        H  0.89657955  0.30047081  0.62278631     0.30700
Zr661      Zr  0.75657084  0.57585997  0.95262824     2.17500
O662        O  0.71082347  0.56962627  0.92126216    -0.51600
O663        O  0.77418953  0.57716790  0.89480921    -0.74800
O664        O  0.75863849  0.62597715  0.94326884    -0.81600
O665        O  0.71002014  0.48819979  0.97680395    -0.83400
O666        O  0.80025216  0.66547347  0.97117395    -0.79000
O667        O  0.70603051  0.52594890  0.94793376    -0.90600
O668        O  0.82170657  0.57996020  0.89496924    -0.76600
O669        O  0.81247847  0.61089209  0.95255325    -0.86100
O670        O  0.77940896  0.54302967  0.95162181    -0.85800
O671        O  0.76796875  0.60651964  0.00358475    -0.72500
O672        O  0.73829171  0.54471101  0.00296935    -0.84700
Zr673      Zr  0.83020014  0.57712690  0.05301232     2.26400
Zr674      Zr  0.82449439  0.64094040  0.00348858     2.06300
Zr675      Zr  0.76199003  0.51261943  0.00230457     2.10000
Zr676      Zr  0.83528942  0.57805499  0.95274384     1.78800
O677        O  0.72207493  0.46855839  0.03531433    -0.93500
O678        O  0.88012867  0.62522673  0.92849657    -0.41300
O679        O  0.81828853  0.54623478  0.00262506    -0.77900
O680        O  0.84834727  0.60871848  0.00272330    -0.96600
O681        O  0.80733972  0.60993414  0.05389114    -0.89900
O682        O  0.77435341  0.54229763  0.05321619    -0.92700
C683        C  0.79831511  0.57921499  0.87969568     1.01000
C684        C  0.69459723  0.49738471  0.95852690     1.14000
C685        C  0.77587978  0.65509172  0.95192700     1.04700
O686        O  0.86588036  0.68118342  0.96808361    -0.94900
O687        O  0.87359745  0.66692268  0.03597326    -0.90600
O688        O  0.87579954  0.62859575  0.06588896    -0.83800
C689        C  0.88749263  0.65750444  0.05648920     1.11400
O690        O  0.70361689  0.57789909  0.04671629    -0.96900
Zr691      Zr  0.75157516  0.57500861  0.05351070     1.88900
O692        O  0.81391981  0.57531521  0.11145793    -0.73500
O693        O  0.82162333  0.67835007  0.04126631    -0.52800
O694        O  0.75297220  0.61943908  0.08229177    -0.97400
O695        O  0.70570763  0.52694173  0.07481771    -0.54700
O696        O  0.76671657  0.57339738  0.11094941    -0.74000
C697        C  0.78982675  0.57363687  0.12635825     0.98300
O698        O  0.88091010  0.58326360  0.07012564    -0.62800
O699        O  0.76596900  0.47735480  0.96216975    -0.57600
O700        O  0.82717986  0.52661369  0.06472638    -0.94300
O701        O  0.78511032  0.48853103  0.03601130    -0.92800
O702        O  0.83644246  0.53446673  0.92517461    -0.93100
O703        O  0.88442143  0.57818087  0.96282011    -0.91900
C704        C  0.80861191  0.49765025  0.05611884     1.17200
H705        H  0.77274847  0.52960231  0.93211643     0.33100
H706        H  0.87115809  0.62164440  0.00279209     0.44000
H707        H  0.76774926  0.52827118  0.07241410     0.37500
H708        H  0.75712567  0.61832437  0.00428121     0.34000
H709        H  0.87164242  0.63911266  0.92250131     0.25800
H710        H  0.83639344  0.69939201  0.03154094     0.31700
H711        H  0.77467816  0.63183158  0.09157560     0.37600
H712        H  0.83067109  0.51835773  0.94303669     0.32100
H713        H  0.77185620  0.46414385  0.97570187     0.30900
H714        H  0.71893836  0.44943800  0.02354215     0.32600
H715        H  0.71452818  0.51618489  0.08826285     0.31600
H716        H  0.88586119  0.57733131  0.98760197     0.35600
H717        H  0.87704409  0.57213773  0.09195306     0.28300
H718        H  0.71952742  0.58330284  0.90115235     0.32500
H719        H  0.69379975  0.57366435  0.06929789     0.35400
H720        H  0.74391345  0.46259249  0.95497433     0.28000
H721        H  0.88522990  0.57056829  0.05402805     0.40900
H722        H  0.86514868  0.70064269  0.97245570     0.30900
H723        H  0.89476188  0.63615747  0.94745055     0.38600
H724        H  0.69637319  0.51335478  0.05479358     0.30400
H725        H  0.80029866  0.67541557  0.03758378     0.30500
H726        H  0.70159379  0.57968403  0.93510722     0.30700
Zr727      Zr  0.75573923  0.57804808  0.45635644     2.17500
O728        O  0.70551996  0.57309843  0.43919363    -0.51600
O729        O  0.76602112  0.57277607  0.39716449    -0.74800
O730        O  0.76032903  0.62813968  0.43986830    -0.81600
O731        O  0.71188129  0.49221366  0.48666829    -0.83400
O732        O  0.80545807  0.66889977  0.46161123    -0.79000
O733        O  0.70656267  0.52659998  0.45303860    -0.90600
O734        O  0.80971124  0.56812745  0.39354106    -0.76600
O735        O  0.81154425  0.61012684  0.44805687    -0.86100
O736        O  0.77603456  0.54317213  0.45687691    -0.85800
O737        O  0.77440721  0.61429473  0.50317030    -0.72500
O738        O  0.74262828  0.55334232  0.51086931    -0.84700
Zr739      Zr  0.83915820  0.58576956  0.54947508     2.26400
Zr740      Zr  0.83056887  0.64577957  0.49495215     2.06300
Zr741      Zr  0.76395882  0.51913999  0.51116682     2.10000
Zr742      Zr  0.83165330  0.57491655  0.44942830     1.78800
O743        O  0.72719200  0.48474679  0.55416325    -0.93500
O744        O  0.87568441  0.61748725  0.41863158    -0.41300
O745        O  0.82005685  0.54948815  0.50320004    -0.77900
O746        O  0.85208608  0.61128739  0.49515673    -0.96600
O747        O  0.81916366  0.62109664  0.54922120    -0.89900
O748        O  0.78349958  0.55416375  0.55799883    -0.92700
C749        C  0.78623653  0.56892009  0.38040504     1.01000
C750        C  0.69598763  0.49902010  0.46622975     1.14000
C751        C  0.77960474  0.65776666  0.44464620     1.04700
O752        O  0.86909272  0.68433605  0.45587115    -0.94900
O753        O  0.88269440  0.67365312  0.52104487    -0.90600
O754        O  0.88647840  0.63789965  0.55429432    -0.83800
C755        C  0.89767378  0.66577381  0.54179304     1.11400
O756        O  0.71624818  0.59380106  0.55551107    -0.96900
Zr757      Zr  0.76357666  0.58935440  0.55724098     1.88900
O758        O  0.82787862  0.58763395  0.60895895    -0.73500
O759        O  0.82955167  0.68545739  0.53066435    -0.52800
O760        O  0.77379125  0.63935962  0.58108090    -0.97400
O761        O  0.71962376  0.54673470  0.58810799    -0.54700
O762        O  0.78466169  0.59310123  0.61317138    -0.74000
C763        C  0.80754111  0.59100919  0.62599802     0.98300
O764        O  0.89007919  0.59307163  0.56764539    -0.62800
O765        O  0.75792228  0.47565042  0.47645790    -0.57600
O766        O  0.83716759  0.53541079  0.56106247    -0.94300
O767        O  0.79029438  0.49620670  0.54086661    -0.92800
O768        O  0.82494703  0.52488575  0.42996519    -0.93100
O769        O  0.88054307  0.57338204  0.45120461    -0.91900
C770        C  0.81684480  0.50600560  0.55577853     1.17200
H771        H  0.76641055  0.52735008  0.43951277     0.33100
H772        H  0.87476499  0.62325298  0.49212142     0.44000
H773        H  0.77849368  0.54214767  0.57863413     0.37500
H774        H  0.76478139  0.62724309  0.50316145     0.34000
H775        H  0.86804719  0.61579308  0.39524068     0.25800
H776        H  0.84371710  0.70584503  0.51933619     0.31700
H777        H  0.79612884  0.65011760  0.58869089     0.37600
H778        H  0.83443601  0.52944615  0.40721334     0.32100
H779        H  0.77926522  0.47814744  0.47565574     0.30900
H780        H  0.72066274  0.46306540  0.54668193     0.32600
H781        H  0.72910454  0.53651861  0.60140522     0.31600
H782        H  0.87989285  0.56344112  0.47312795     0.35600
H783        H  0.88610295  0.58237461  0.58975726     0.28300
H784        H  0.70887470  0.58172533  0.41604186     0.32500
H785        H  0.71200868  0.59666638  0.57918006     0.35400
H786        H  0.74506362  0.45642823  0.49017719     0.28000
H787        H  0.89477310  0.58022634  0.55216495     0.40900
H788        H  0.87421374  0.70512676  0.46506506     0.30900
H789        H  0.87722073  0.63709395  0.42728738     0.38600
H790        H  0.70675351  0.53095565  0.57074933     0.30400
H791        H  0.80805642  0.68230713  0.52775911     0.30500
H792        H  0.70282791  0.58816366  0.45326618     0.30700
C793        C  0.80389225  0.61062895  0.71729235    -0.27900
C794        C  0.80711963  0.58715445  0.73392488     0.01700
C795        C  0.81191379  0.56580020  0.71479894     0.29800
C796        C  0.81344027  0.56821672  0.67962118    -0.19700
C797        C  0.80962812  0.59134603  0.66304105    -0.29100
C798        C  0.80504567  0.61278980  0.68217145     0.43800
C799        C  0.80481771  0.58493965  0.77115836     0.05000
O800        O  0.81288171  0.54120842  0.73013783    -0.57600
H801        H  0.81620677  0.55108175  0.66520432     0.17900
O802        O  0.80132088  0.63572840  0.66671520    -0.64300
H803        H  0.80034296  0.62731079  0.73161944     0.16400
C804        C  0.82895881  0.58531183  0.79072994     0.28600
C805        C  0.82611427  0.58284285  0.82570992    -0.25200
C806        C  0.79979963  0.58101189  0.84223488    -0.24500
C807        C  0.77610153  0.58174119  0.82253358     0.40100
C808        C  0.77871613  0.58353771  0.78738371    -0.27000
O809        O  0.85590676  0.58893295  0.77603005    -0.58900
H810        H  0.84505927  0.58294096  0.83991735     0.15700
O811        O  0.75081006  0.58174715  0.83723705    -0.60300
H812        H  0.76021275  0.58385222  0.77269712     0.14200
H813        H  0.82221219  0.65541004  0.66866118     0.46000
H814        H  0.86914454  0.61185080  0.77107827     0.41400
H815        H  0.73258138  0.56004674  0.83406440     0.44900
H816        H  0.83478749  0.54552574  0.72683040     0.36300
C817        C  0.75798497  0.55977944  0.21601211    -0.27900
C818        C  0.78524206  0.56811185  0.23492634     0.01700
C819        C  0.81406761  0.57793295  0.21813732     0.29800
C820        C  0.81537961  0.57962170  0.18290131    -0.19700
C821        C  0.78808810  0.57148558  0.16376687    -0.29100
C822        C  0.75909053  0.56110340  0.18087485     0.43800
C823        C  0.78339794  0.56676768  0.27217837     0.05000
O824        O  0.84117047  0.58622240  0.23598807    -0.57600
H825        H  0.83790543  0.58761530  0.17059583     0.17900
O826        O  0.73146240  0.55184253  0.16362464    -0.64300
H827        H  0.73557356  0.55181019  0.22858219     0.16400
C828        C  0.77416020  0.58543896  0.29015041     0.28600
C829        C  0.77392430  0.58494580  0.32540658    -0.25200
C830        C  0.78308838  0.56616194  0.34329159    -0.24500
C831        C  0.79148088  0.54678083  0.32519436     0.40100
C832        C  0.79136198  0.54704124  0.28994741    -0.27000
O833        O  0.76724313  0.60571218  0.27347231    -0.58900
H834        H  0.76781678  0.60030584  0.33878494     0.15700
O835        O  0.79930291  0.52709480  0.34171882    -0.60300
H836        H  0.79788725  0.53207028  0.27641493     0.14200
H837        H  0.72235711  0.52893226  0.15941747     0.46000
H838        H  0.74381700  0.59527414  0.27387623     0.41400
H839        H  0.82278092  0.53826699  0.34138575     0.44900
H840        H  0.85026316  0.60891304  0.24139734     0.36300
C841        C  0.81443380  0.42750648  0.56179949    -0.27900
C842        C  0.83419694  0.43225061  0.58922206     0.01700
C843        C  0.84970897  0.46200030  0.60512639     0.29800
C844        C  0.84501725  0.48646623  0.59341858    -0.19700
C845        C  0.82400617  0.48120192  0.56668173    -0.29100
C846        C  0.80889027  0.45126074  0.55081393     0.43800
C847        C  0.83535578  0.40454747  0.60230195     0.05000
O848        O  0.86963985  0.46736622  0.63179246    -0.57600
H849        H  0.85698668  0.50915816  0.60596782     0.17900
O850        O  0.78868883  0.44481670  0.52418665    -0.64300
H851        H  0.80213194  0.40466355  0.54953379     0.16400
C852        C  0.82131344  0.39111040  0.63335996     0.28600
C853        C  0.81691232  0.36171438  0.64280417    -0.25200
C854        C  0.82560980  0.34462153  0.62134737    -0.24500
C855        C  0.84030984  0.35840018  0.59043687     0.40100
C856        C  0.84515026  0.38817781  0.58121518    -0.27000
O857        O  0.80997715  0.40559632  0.65378376    -0.58900
H858        H  0.80554814  0.35177860  0.66668533     0.15700
O859        O  0.84856583  0.34243289  0.56831454    -0.60300
H860        H  0.85526343  0.39791380  0.55682203     0.14200
H861        H  0.76708589  0.43245980  0.53384603     0.46000
H862        H  0.78776691  0.39732871  0.64646762     0.41400
H863        H  0.82931266  0.32943151  0.55458155     0.44900
H864        H  0.85840956  0.46884492  0.65178575     0.36300
C865        C  0.84440407  0.38612383  0.08423215    -0.27900
C866        C  0.83172449  0.39992375  0.10515420     0.01700
C867        C  0.81870254  0.38590903  0.13628932     0.29800
C868        C  0.81658370  0.35743587  0.14531669    -0.19700
C869        C  0.82705767  0.34209749  0.12351903    -0.29100
C870        C  0.84218061  0.35732560  0.09320748     0.43800
C871        C  0.82699373  0.42550470  0.09235399     0.05000
O872        O  0.80595954  0.39879044  0.15708197    -0.57600
H873        H  0.80542341  0.34666783  0.16903513     0.17900
O874        O  0.85325257  0.34359113  0.07137572    -0.64300
H875        H  0.85433951  0.39672555  0.06006029     0.16400
C876        C  0.85117184  0.45741118  0.09283523     0.28600
C877        C  0.84494581  0.48088493  0.08150506    -0.25200
C878        C  0.81464816  0.47284796  0.06957551    -0.24500
C879        C  0.79048604  0.44062081  0.06949836     0.40100
C880        C  0.79679618  0.41746611  0.08096805    -0.27000
O881        O  0.88085834  0.46581916  0.10423689    -0.58900
H882        H  0.86395038  0.50533237  0.08167809     0.15700
O883        O  0.76025943  0.43142497  0.05924040    -0.60300
H884        H  0.77788867  0.39294825  0.08105192     0.14200
H885        H  0.83503171  0.32996559  0.05659665     0.46000
H886        H  0.88074087  0.47037874  0.12848871     0.41400
H887        H  0.75869271  0.42368081  0.03590786     0.44900
H888        H  0.82367473  0.41356013  0.17179680     0.36300
C889        C  0.82074035  0.21704068  0.88869713    -0.27900
C890        C  0.79236445  0.20693031  0.90607111     0.01700
C891        C  0.76396954  0.19583883  0.88786232     0.29800
C892        C  0.76443990  0.19570196  0.85259452    -0.19700
C893        C  0.79300491  0.20632101  0.83513431    -0.29100
C894        C  0.82119398  0.21649000  0.85358887     0.43800
C895        C  0.79293159  0.20805392  0.94323059     0.05000
O896        O  0.73598664  0.18650162  0.90431333    -0.57600
H897        H  0.74256572  0.18796842  0.83890415     0.17900
O898        O  0.84934309  0.22575369  0.83755702    -0.64300
H899        H  0.84263226  0.22512355  0.90247989     0.16400
C900        C  0.77667974  0.18019725  0.96231493     0.28600
C901        C  0.77790489  0.18166516  0.99739062    -0.25200
C902        C  0.79559454  0.21072166  0.01421878    -0.24500
C903        C  0.81227232  0.23866313  0.99494686     0.40100
C904        C  0.81095116  0.23711211  0.95973749    -0.27000
O905        O  0.75990922  0.15133645  0.94688815    -0.58900
H906        H  0.76521249  0.15977018  0.01144401     0.15700
O907        O  0.82967233  0.26758534  0.01010538    -0.60300
H908        H  0.82381289  0.25871216  0.94522021     0.14200
H909        H  0.85146156  0.20670581  0.83732749     0.46000
H910        H  0.77473986  0.14321658  0.94563399     0.41400
H911        H  0.81497017  0.27579395  0.01226472     0.44900
H912        H  0.72378875  0.16312253  0.90257575     0.36300
C913        C  0.76854969  0.20092750  0.46030816    -0.27900
C914        C  0.79773093  0.21208254  0.44414696     0.01700
C915        C  0.82566865  0.22516128  0.46356309     0.29800
C916        C  0.82405749  0.22666131  0.49858903    -0.19700
C917        C  0.79473519  0.21465582  0.51482253    -0.29100
C918        C  0.76683159  0.20182043  0.49531575     0.43800
C919        C  0.79866751  0.21076106  0.40698014     0.05000
O920        O  0.85459107  0.23611003  0.44857561    -0.57600
H921        H  0.84573485  0.23638266  0.51313864     0.17900
O922        O  0.73785455  0.19107435  0.51012436    -0.64300
H923        H  0.74695363  0.19159621  0.44568250     0.16400
C924        C  0.77952717  0.18238360  0.38940184     0.28600
C925        C  0.77968910  0.18214308  0.35415758    -0.25200
C926        C  0.79899720  0.20996577  0.33585301    -0.24500
C927        C  0.81815215  0.23838010  0.35372394     0.40100
C928        C  0.81792816  0.23850224  0.38883659    -0.27000
O929        O  0.76059433  0.15475352  0.40647957    -0.58900
H930        H  0.76486533  0.16004433  0.34117541     0.15700
O931        O  0.83679662  0.26644055  0.33723626    -0.60300
H932        H  0.83233448  0.26062724  0.40195924     0.14200
H933        H  0.72767509  0.16771092  0.51044460     0.46000
H934        H  0.77314645  0.14407841  0.40805724     0.41400
H935        H  0.82332592  0.27604017  0.33456079     0.44900
H936        H  0.85896635  0.21853508  0.45053919     0.36300
C937        C  0.54728503  0.16385115  0.74010558    -0.27900
C938        C  0.57354570  0.17404482  0.76163747     0.01700
C939        C  0.57297569  0.18631609  0.79334391     0.29800
C940        C  0.54702207  0.18909166  0.80270093    -0.19700
C941        C  0.52110331  0.17982898  0.78095796    -0.29100
C942        C  0.52101670  0.16633619  0.74968565     0.43800
C943        C  0.60299163  0.17565193  0.74945107     0.05000
O944        O  0.59890094  0.19828093  0.81415076    -0.57600
H945        H  0.54765519  0.19942771  0.82692591     0.17900
O946        O  0.49655806  0.15761252  0.72739694    -0.64300
H947        H  0.54756050  0.15474513  0.71541352     0.16400
C948        C  0.61772426  0.16171424  0.76733934     0.28600
C949        C  0.64753217  0.16707051  0.75708681    -0.25200
C950        C  0.66322733  0.18665364  0.72935846    -0.24500
C951        C  0.64751960  0.19917607  0.71061364     0.40100
C952        C  0.61785480  0.19370532  0.72075293    -0.27000
O953        O  0.60282525  0.14239815  0.79440791    -0.58900
H954        H  0.65874034  0.15662069  0.77147188     0.15700
O955        O  0.66101475  0.21711222  0.68238143    -0.60300
H956        H  0.60681066  0.20448167  0.70663102     0.14200
H957        H  0.48280603  0.13443651  0.73030131     0.46000
H958        H  0.61679906  0.15285512  0.81402227     0.41400
H959        H  0.65372680  0.20178498  0.66356789     0.44900
H960        H  0.59201242  0.18409906  0.83404746     0.36300
C961        C  0.54519802  0.38138478  0.93068299    -0.27900
C962        C  0.57352558  0.39604365  0.91218986     0.01700
C963        C  0.57542890  0.38176298  0.88241556     0.29800
C964        C  0.54991760  0.35257009  0.87243490    -0.19700
C965        C  0.52181843  0.33707394  0.89147133    -0.29100
C966        C  0.51934354  0.35231989  0.92038914     0.43800
C967        C  0.60217963  0.42404930  0.92597072     0.05000
O968        O  0.60302079  0.39501391  0.86423318    -0.57600
H969        H  0.55255590  0.34170188  0.84997147     0.17900
O970        O  0.49225311  0.33870266  0.93937946    -0.64300
H971        H  0.54343038  0.39215299  0.95367810     0.16400
C972        C  0.61858848  0.45263478  0.90787900     0.28600
C973        C  0.64805801  0.47695043  0.91940477    -0.25200
C974        C  0.66167578  0.47317314  0.94893630    -0.24500
C975        C  0.64411081  0.44520494  0.96807281     0.40100
C976        C  0.61476511  0.42101816  0.95648056    -0.27000
O977        O  0.60649330  0.45659558  0.87834483    -0.58900
H978        H  0.66079886  0.49827927  0.90445990     0.15700
O979        O  0.65571515  0.44080207  0.99774815    -0.60300
H980        H  0.60233002  0.39923711  0.97078748     0.14200
H981        H  0.49597335  0.32697184  0.95743764     0.46000
H982        H  0.59601627  0.46864323  0.88450337     0.41400
H983        H  0.64617706  0.44741011  0.01556888     0.44900
H984        H  0.59889308  0.40423966  0.84398714     0.36300
C985        C  0.55159712  0.16042895  0.24953281    -0.27900
C986        C  0.58005493  0.17476025  0.26796384     0.01700
C987        C  0.58253436  0.19290735  0.29631062     0.29800
C988        C  0.55734960  0.19729168  0.30524147    -0.19700
C989        C  0.52895111  0.18359904  0.28652210    -0.29100
C990        C  0.52607506  0.16436940  0.25879738     0.43800
C991        C  0.60849238  0.17454980  0.25501830     0.05000
O992        O  0.61044003  0.20849795  0.31393872    -0.57600
H993        H  0.56045221  0.21209388  0.32672995     0.17900
O994        O  0.49923380  0.15077476  0.23938146    -0.64300
H995        H  0.54945847  0.14674740  0.22733827     0.16400
C996        C  0.62435876  0.16235189  0.27390347     0.28600
C997        C  0.65356682  0.16661968  0.26264681    -0.25200
C998        C  0.66755848  0.18339976  0.23281711    -0.24500
C999        C  0.65045252  0.19378847  0.21306377     0.40100
C1000       C  0.62143627  0.18941522  0.22425828    -0.27000
O1001       O  0.61123576  0.14589087  0.30307767    -0.58900
H1002       H  0.66575019  0.15773834  0.27788410     0.15700
O1003       O  0.66205712  0.20877529  0.18284921    -0.60300
H1004       H  0.60944898  0.19868880  0.20927223     0.14200
H1005       H  0.48594802  0.12914855  0.24862897     0.46000
H1006       H  0.62540083  0.15930074  0.32140336     0.41400
H1007       H  0.65385405  0.19162362  0.16591261     0.44900
H1008       H  0.60615350  0.19719706  0.33574674     0.36300
C1009       C  0.54865095  0.37713050  0.44436784    -0.27900
C1010       C  0.57507805  0.39406899  0.42330376     0.01700
C1011       C  0.57512132  0.38195330  0.39138885     0.29800
C1012       C  0.54967515  0.35281930  0.38144417    -0.19700
C1013       C  0.52355611  0.33519582  0.40272891    -0.29100
C1014       C  0.52274665  0.34806627  0.43410957     0.43800
C1015       C  0.60408708  0.42219320  0.43612071     0.05000
O1016       O  0.60107713  0.39722368  0.37080741    -0.57600
H1017       H  0.55081766  0.34364624  0.35707648     0.17900
O1018       O  0.49791941  0.33158488  0.45580407    -0.64300
H1019       H  0.54850436  0.38610823  0.46917144     0.16400
C1020       C  0.61733731  0.45182457  0.42007450     0.28600
C1021       C  0.64678046  0.47692550  0.43063438    -0.25200
C1022       C  0.66357759  0.47293823  0.45712419    -0.24500
C1023       C  0.64948735  0.44324123  0.47376512     0.40100
C1024       C  0.62013677  0.41840333  0.46320546    -0.27000
O1025       O  0.60209717  0.45616340  0.39342867    -0.58900
H1026       H  0.65678738  0.49929016  0.41741700     0.15700
O1027       O  0.66449912  0.43765386  0.49974194    -0.60300
H1028       H  0.61033057  0.39562314  0.47556328     0.14200
H1029       H  0.48445959  0.34120780  0.45325644     0.46000
H1030       H  0.59245724  0.46808566  0.40264828     0.41400
H1031       H  0.65732174  0.44343747  0.52038846     0.44900
H1032       H  0.59441010  0.40599676  0.35211700     0.36300
C1033       C  0.40721299  0.21687747  0.55433145    -0.27900
C1034       C  0.42240908  0.20329516  0.57158515     0.01700
C1035       C  0.43771067  0.19045675  0.55324320     0.29800
C1036       C  0.43710939  0.19073497  0.51811179    -0.19700
C1037       C  0.42180866  0.20423856  0.50069967    -0.29100
C1038       C  0.40705188  0.21769037  0.51919542     0.43800
C1039       C  0.42196336  0.20249828  0.60872859     0.05000
O1040       O  0.45345654  0.17773260  0.56941825    -0.57600
H1041       H  0.44898759  0.18066372  0.50445246     0.17900
O1042       O  0.39114854  0.23037074  0.50326670    -0.64300
H1043       H  0.39505689  0.22654297  0.56818303     0.16400
C1044       C  0.43367563  0.23054191  0.62728292     0.28600
C1045       C  0.43203026  0.22928988  0.66234163    -0.25200
C1046       C  0.41882793  0.20026130  0.67958733    -0.24500
C1047       C  0.40784709  0.17220145  0.66093911     0.40100
C1048       C  0.40924141  0.17347889  0.62574984    -0.27000
O1049       O  0.44779008  0.25935790  0.61135619    -0.58900
H1050       H  0.44137877  0.25126826  0.67608207     0.15700
O1051       O  0.39452135  0.14335096  0.67666569    -0.60300
H1052       H  0.39996221  0.15169323  0.61166142     0.14200
H1053       H  0.40634096  0.25346350  0.50247162     0.46000
H1054       H  0.43216956  0.26650328  0.61252159     0.41400
H1055       H  0.41170922  0.13832004  0.67808671     0.44900
H1056       H  0.47398958  0.19610273  0.57648792     0.36300
C1057       C  0.44630423  0.20697773  0.05393532    -0.27900
C1058       C  0.42653931  0.21516181  0.07121301     0.01700
C1059       C  0.40750885  0.22373736  0.05255822     0.29800
C1060       C  0.40793475  0.22335163  0.01733784    -0.19700
C1061       C  0.42667563  0.21385850  0.00010039    -0.29100
C1062       C  0.44646057  0.20623308  0.01873232     0.43800
C1063       C  0.42572875  0.21430346  0.10860161     0.05000
O1064       O  0.38773277  0.23167327  0.06851393    -0.57600
H1065       H  0.39260131  0.22933729  0.00349296     0.17900
O1066       O  0.46603674  0.19801535  0.00279650    -0.64300
H1067       H  0.46166420  0.20105375  0.06781783     0.16400
C1068       C  0.42060549  0.18724284  0.12646197     0.28600
C1069       C  0.42050695  0.18708157  0.16168502    -0.25200
C1070       C  0.42495405  0.21352157  0.17991715    -0.24500
C1071       C  0.42966468  0.24051406  0.16183101     0.40100
C1072       C  0.43013382  0.24070813  0.12664923    -0.27000
O1073       O  0.41523985  0.16059556  0.10971582    -0.58900
H1074       H  0.41649065  0.16594192  0.17471122     0.15700
O1075       O  0.43385082  0.26696645  0.17809428    -0.60300
H1076       H  0.43431066  0.26180502  0.11339255     0.14200
H1077       H  0.48723931  0.21745688  0.00281495     0.46000
H1078       H  0.39229066  0.14906887  0.10435224     0.41400
H1079       H  0.45699553  0.28012207  0.18200173     0.44900
H1080       H  0.36644730  0.21237712  0.06762745     0.36300
C1081       C  0.02609059  0.26061238  0.55152298    -0.27900
C1082       C  0.01414088  0.26999148  0.57821851     0.01700
C1083       C  0.03455677  0.29775374  0.59594706     0.29800
C1084       C  0.06602207  0.31676773  0.58567219    -0.19700
C1085       C  0.07782640  0.30848709  0.55772513    -0.29100
C1086       C  0.05782095  0.27935444  0.54151460     0.43800
C1087       C  0.97979319  0.25293751  0.58546469     0.05000
O1088       O  0.02359828  0.30714579  0.62259826    -0.57600
H1089       H  0.08091366  0.33867922  0.59895377     0.17900
O1090       O  0.06822869  0.27003122  0.51435417    -0.64300
H1091       H  0.01050717  0.23923530  0.53773412     0.16400
C1092       C  0.95942002  0.25900407  0.56605099     0.28600
C1093       C  0.92805626  0.24724924  0.57629249    -0.25200
C1094       C  0.91647895  0.22942930  0.60604326    -0.24500
C1095       C  0.93657973  0.22195698  0.62446269     0.40100
C1096       C  0.96804767  0.23395117  0.61423937    -0.27000
O1097       O  0.97046490  0.27777791  0.53793587    -0.58900
H1098       H  0.91312010  0.25317790  0.56159385     0.15700
O1099       O  0.92668182  0.20535501  0.65405932    -0.60300
H1100       H  0.98371368  0.22953535  0.62959594     0.14200
H1101       H  0.07518927  0.25578223  0.52371829     0.46000
H1102       H  0.97795948  0.29955104  0.54600124     0.41400
H1103       H  0.92068122  0.18339312  0.64819357     0.44900
H1104       H  0.01303129  0.31788744  0.61243308     0.36300
C1105       C  0.26211474  0.29443775  0.39632531    -0.27900
C1106       C  0.25835659  0.27073452  0.41891925     0.01700
C1107       C  0.23941075  0.26491808  0.44767134     0.29800
C1108       C  0.22563058  0.28343821  0.45411743    -0.19700
C1109       C  0.23076341  0.30830344  0.43240479    -0.29100
C1110       C  0.24854756  0.31308792  0.40280125     0.43800
C1111       C  0.27610982  0.25390256  0.41321213     0.05000
O1112       O  0.23501995  0.24181848  0.47018174    -0.57600
H1113       H  0.21217488  0.27929513  0.47705034     0.17900
O1114       O  0.25369838  0.33660538  0.38049294    -0.64300
H1115       H  0.27667067  0.29934384  0.37412669     0.16400
C1116       C  0.27265601  0.23740375  0.38313631     0.28600
C1117       C  0.29225597  0.22483678  0.37663447    -0.25200
C1118       C  0.31593922  0.22882857  0.39958715    -0.24500
C1119       C  0.31823292  0.24396052  0.43047308     0.40100
C1120       C  0.29849262  0.25634879  0.43701962    -0.27000
O1121       O  0.24998732  0.23326695  0.36006813    -0.58900
H1122       H  0.28977138  0.21311797  0.35283903     0.15700
O1123       O  0.34008293  0.24733834  0.45422293    -0.60300
H1124       H  0.30142158  0.26887641  0.46035135     0.14200
H1125       H  0.23718491  0.32610878  0.36294817     0.46000
H1126       H  0.26167136  0.24822370  0.34151041     0.41400
H1127       H  0.32962998  0.22739339  0.46737987     0.44900
H1128       H  0.21656249  0.22215839  0.46150977     0.36300
C1129       C  0.21877120  0.40948688  0.70309424    -0.27900
C1130       C  0.19916160  0.41782803  0.72014818     0.01700
C1131       C  0.17901165  0.42489344  0.70139716     0.29800
C1132       C  0.17909807  0.42384074  0.66603962    -0.19700
C1133       C  0.19899955  0.41563259  0.64890814    -0.29100
C1134       C  0.21867234  0.40805343  0.66808179     0.43800
C1135       C  0.20014166  0.41850803  0.75750325     0.05000
O1136       O  0.16039204  0.43434155  0.71732992    -0.57600
H1137       H  0.16392735  0.42995220  0.65206775     0.17900
O1138       O  0.23797161  0.39901195  0.65300338    -0.64300
H1139       H  0.23405375  0.40354008  0.71711118     0.16400
C1140       C  0.17263024  0.39997208  0.77665241     0.28600
C1141       C  0.17448657  0.39967381  0.81174035    -0.25200
C1142       C  0.20374124  0.41677158  0.82847779    -0.24500
C1143       C  0.23143567  0.43474194  0.80926832     0.40100
C1144       C  0.22944077  0.43564612  0.77415052    -0.27000
O1145       O  0.14393982  0.38117230  0.76134667    -0.58900
H1146       H  0.15293870  0.38532770  0.82591529     0.15700
O1147       O  0.26052485  0.45163041  0.82443575    -0.60300
H1148       H  0.25093455  0.44965214  0.75977341     0.14200
H1149       H  0.22523478  0.37560987  0.65198112     0.46000
H1150       H  0.14425512  0.36199894  0.75420163     0.41400
H1151       H  0.26249013  0.47205719  0.83082547     0.44900
H1152       H  0.13825862  0.41699199  0.71378355     0.36300
C1153       C  0.22406746  0.40105600  0.20146608    -0.27900
C1154       C  0.21157012  0.41631790  0.22010376     0.01700
C1155       C  0.19921747  0.43298738  0.20315871     0.29800
C1156       C  0.19924017  0.43392954  0.16791957    -0.19700
C1157       C  0.21152735  0.41841329  0.14917026    -0.29100
C1158       C  0.22384376  0.40170648  0.16635246     0.43800
C1159       C  0.21071501  0.41383876  0.25720554     0.05000
O1160       O  0.18827776  0.44943408  0.22092505    -0.57600
H1161       H  0.19001815  0.44717421  0.15527827     0.17900
O1162       O  0.23514012  0.38531774  0.14911636    -0.64300
H1163       H  0.23336695  0.38792718  0.21422357     0.16400
C1164       C  0.18174543  0.40040805  0.27446857     0.28600
C1165       C  0.18130461  0.39934949  0.30953831    -0.25200
C1166       C  0.20947582  0.41073520  0.32813271    -0.24500
C1167       C  0.23840819  0.42254534  0.31069061     0.40100
C1168       C  0.23885735  0.42423540  0.27546916    -0.27000
O1169       O  0.15366655  0.38803914  0.25722012    -0.58900
H1170       H  0.15865915  0.38932096  0.32220470     0.15700
O1171       O  0.26647925  0.43378797  0.32771639    -0.60300
H1172       H  0.26128957  0.43413376  0.26238092     0.14200
H1173       H  0.21636515  0.36411078  0.14511530     0.46000
H1174       H  0.14563631  0.36502372  0.25584831     0.41400
H1175       H  0.27058089  0.41597189  0.32814421     0.44900
H1176       H  0.16504843  0.43800393  0.21718002     0.36300
C1177       C  0.96688485  0.26432267  0.06816065    -0.27900
C1178       C  0.98745754  0.25939680  0.08842644     0.01700
C1179       C  0.97558698  0.24057445  0.11747378     0.29800
C1180       C  0.94376901  0.22792915  0.12659979    -0.19700
C1181       C  0.92340823  0.23406652  0.10719036    -0.29100
C1182       C  0.93514387  0.25182672  0.07723555     0.43800
C1183       C  0.02161550  0.27592677  0.08004957     0.05000
O1184       O  0.99514692  0.23520147  0.13761486    -0.57600
H1185       H  0.93542591  0.21449226  0.14974629     0.17900
O1186       O  0.91607332  0.25790787  0.05708061    -0.64300
H1187       H  0.97575269  0.27883804  0.04574639     0.16400
C1188       C  0.03212262  0.27060070  0.04923726     0.28600
C1189       C  0.06396346  0.28937681  0.03992054    -0.25200
C1190       C  0.08544088  0.31443242  0.06043443    -0.24500
C1191       C  0.07520170  0.31873261  0.09204647     0.40100
C1192       C  0.04352926  0.29942572  0.10169828    -0.27000
O1193       O  0.01126865  0.24739343  0.02789952    -0.58900
H1194       H  0.07133060  0.28558866  0.01557061     0.15700
O1195       O  0.09561738  0.34247665  0.11313538    -0.60300
H1196       H  0.03570297  0.30379738  0.12547143     0.14200
H1197       H  0.90721895  0.24070886  0.04019001     0.46000
H1198       H  0.00796927  0.25869424  0.00903370     0.41400
H1199       H  0.10660689  0.33349099  0.12598555     0.44900
H1200       H  0.99381700  0.21577020  0.12856010     0.36300
C1201       C  0.26630864  0.23256562  0.89166627    -0.27900
C1202       C  0.27784470  0.25857710  0.91333230     0.01700
C1203       C  0.30635305  0.26847999  0.93071999     0.29800
C1204       C  0.32414638  0.25399786  0.92447954    -0.19700
C1205       C  0.31413685  0.22953476  0.90074455    -0.29100
C1206       C  0.28417664  0.21801225  0.88525673     0.43800
C1207       C  0.26151686  0.27691975  0.91624067     0.05000
O1208       O  0.31688816  0.29234596  0.95397371    -0.57600
H1209       H  0.34648919  0.26282457  0.93755110     0.17900
O1210       O  0.27254363  0.19333618  0.86299672    -0.64300
H1211       H  0.24406098  0.22439789  0.87858525     0.16400
C1212       C  0.27603420  0.30800630  0.90378920     0.28600
C1213       C  0.26256618  0.32670493  0.90997221    -0.25200
C1214       C  0.23475869  0.31520066  0.92923818    -0.24500
C1215       C  0.21937727  0.28333251  0.94026047     0.40100
C1216       C  0.23268445  0.26443818  0.93344564    -0.27000
O1217       O  0.30360981  0.32035300  0.88565372    -0.58900
H1218       H  0.27484913  0.35079420  0.90070149     0.15700
O1219       O  0.19167893  0.27048039  0.95818812    -0.60300
H1220       H  0.22115878  0.24040191  0.94287704     0.14200
H1221       H  0.27827924  0.20329272  0.84041223     0.46000
H1222       H  0.32053714  0.33520841  0.90109402     0.41400
H1223       H  0.19804160  0.27157633  0.98207136     0.44900
H1224       H  0.33682223  0.31003238  0.94467661     0.36300
C1225       C  0.72414395  0.96903401  0.78408605    -0.27900
C1226       C  0.71931030  0.97951096  0.75303234     0.01700
C1227       C  0.69852697  0.95727504  0.72951691     0.29800
C1228       C  0.68235160  0.92502323  0.73751037    -0.19700
C1229       C  0.68649482  0.91440119  0.76897288    -0.29100
C1230       C  0.70801690  0.93676854  0.79214437     0.43800
C1231       C  0.73419238  0.01375797  0.74621703     0.05000
O1232       O  0.69287153  0.96695998  0.69921896    -0.57600
H1233       H  0.66566556  0.90834419  0.71948642     0.17900
O1234       O  0.71136802  0.92770059  0.82381306    -0.64300
H1235       H  0.73976826  0.98604376  0.80253217     0.16400
C1236       C  0.72401925  0.03200010  0.76334167     0.28600
C1237       C  0.73657988  0.06387473  0.75495326    -0.25200
C1238       C  0.75971751  0.07830207  0.72968003    -0.24500
C1239       C  0.77052789  0.05997314  0.71325003     0.40100
C1240       C  0.75755087  0.02795860  0.72142039    -0.27000
O1241       O  0.70054730  0.01839471  0.78707619    -0.58900
H1242       H  0.72771429  0.07714715  0.76799722     0.15700
O1243       O  0.79259047  0.07251791  0.68801900    -0.60300
H1244       H  0.76544816  0.01401940  0.70802905     0.14200
H1245       H  0.73045253  0.92563733  0.82264715     0.46000
H1246       H  0.71173169  0.02383968  0.80901349     0.41400
H1247       H  0.81333230  0.08055416  0.69936307     0.44900
H1248       H  0.67633937  0.97242385  0.70388907     0.36300
C1249       C  0.73445077  0.75624504  0.89085984    -0.27900
C1250       C  0.72395392  0.73419551  0.91718641     0.01700
C1251       C  0.69672671  0.72770323  0.93526078     0.29800
C1252       C  0.67965814  0.74235641  0.92618622    -0.19700
C1253       C  0.68888697  0.76313804  0.89850234    -0.29100
C1254       C  0.71718439  0.77074889  0.88141978     0.43800
C1255       C  0.73940098  0.71552096  0.92357061     0.05000
O1256       O  0.68602964  0.70619935  0.96114406    -0.57600
H1257       H  0.65820891  0.73618917  0.93993411     0.17900
O1258       O  0.72676249  0.79013955  0.85374497    -0.64300
H1259       H  0.75525233  0.76108462  0.87658095     0.16400
C1260       C  0.72625695  0.68495172  0.91027291     0.28600
C1261       C  0.73928558  0.66622597  0.91850499    -0.25200
C1262       C  0.76544134  0.67733710  0.94041593    -0.24500
C1263       C  0.77908004  0.70852613  0.95302345     0.40100
C1264       C  0.76611528  0.72736661  0.94434924    -0.27000
O1265       O  0.69981977  0.67270410  0.89022692    -0.58900
H1266       H  0.72815837  0.64252671  0.90833847     0.15700
O1267       O  0.80454476  0.72067631  0.97444746    -0.60300
H1268       H  0.77632883  0.75092920  0.95472821     0.14200
H1269       H  0.74305900  0.81120054  0.86220645     0.46000
H1270       H  0.70799586  0.67870717  0.86697194     0.41400
H1271       H  0.79536533  0.71707676  0.99735303     0.44900
H1272       H  0.67043781  0.68576694  0.95076146     0.36300
C1273       C  0.45882444  0.60831734  0.92400095    -0.27900
C1274       C  0.43133642  0.59309461  0.90403355     0.01700
C1275       C  0.43028950  0.60728470  0.87365964     0.29800
C1276       C  0.45591204  0.63645186  0.86412010    -0.19700
C1277       C  0.48300470  0.65252296  0.88455074    -0.29100
C1278       C  0.48456471  0.63782862  0.91450081     0.43800
C1279       C  0.40220977  0.56495458  0.91684568     0.05000
O1280       O  0.40313713  0.59425999  0.85464557    -0.57600
H1281       H  0.45393981  0.64699187  0.84093451     0.17900
O1282       O  0.51039362  0.65251657  0.93534082    -0.64300
H1283       H  0.45984723  0.59779901  0.94761974     0.16400
C1284       C  0.38482976  0.53765815  0.89702573     0.28600
C1285       C  0.35405982  0.51458326  0.90648554    -0.25200
C1286       C  0.34042129  0.51804808  0.93598896    -0.24500
C1287       C  0.35902087  0.54391657  0.95731943     0.40100
C1288       C  0.38957870  0.56710555  0.94762865    -0.27000
O1289       O  0.39732567  0.53387883  0.86780830    -0.58900
H1290       H  0.34051534  0.49447730  0.89015600     0.15700
O1291       O  0.34770550  0.54655387  0.98791464    -0.60300
H1292       H  0.40285357  0.58761130  0.96352671     0.14200
H1293       H  0.50571964  0.66540300  0.95084690     0.46000
H1294       H  0.40659979  0.52070558  0.87408974     0.41400
H1295       H  0.34083629  0.56219664  0.98443643     0.44900
H1296       H  0.40831334  0.58700457  0.83364778     0.36300
C1297       C  0.73198843  0.96608951  0.28183973    -0.27900
C1298       C  0.72358695  0.97898096  0.25493302     0.01700
C1299       C  0.69687833  0.95886353  0.23538643     0.29800
C1300       C  0.67847373  0.92671645  0.24343235    -0.19700
C1301       C  0.68608754  0.91378362  0.27104341    -0.29100
C1302       C  0.71370582  0.93376198  0.28979087     0.43800
C1303       C  0.74151389  0.01361052  0.24827852     0.05000
O1304       O  0.68788027  0.97065134  0.20900860    -0.57600
H1305       H  0.65760166  0.91201767  0.22841717     0.17900
O1306       O  0.72204509  0.92249821  0.31716551    -0.64300
H1307       H  0.75251238  0.98127461  0.29709016     0.16400
C1308       C  0.74184692  0.03504401  0.27193667     0.28600
C1309       C  0.75522227  0.06712643  0.26354005    -0.25200
C1310       C  0.76914536  0.07861587  0.23187944    -0.24500
C1311       C  0.77010564  0.05730192  0.20879807     0.40100
C1312       C  0.75611081  0.02511117  0.21698508    -0.27000
O1313       O  0.72719905  0.02445760  0.30246567    -0.58900
H1314       H  0.75407777  0.08296521  0.28162724     0.15700
O1315       O  0.78235212  0.06714265  0.17717049    -0.60300
H1316       H  0.75589417  0.00887757  0.19845430     0.14200
H1317       H  0.73683326  0.91604902  0.30833415     0.46000
H1318       H  0.74460184  0.03020211  0.31881639     0.41400
H1319       H  0.80358963  0.06927689  0.17784471     0.44900
H1320       H  0.67281026  0.97632024  0.21875177     0.36300
C1321       C  0.73536991  0.69128524  0.39757379    -0.27900
C1322       C  0.74405335  0.71873917  0.41608901     0.01700
C1323       C  0.76704279  0.72788203  0.44150470     0.29800
C1324       C  0.78005106  0.70886564  0.44908285    -0.19700
C1325       C  0.77001811  0.68025890  0.43190886    -0.29100
C1326       C  0.74803908  0.67206054  0.40527657     0.43800
C1327       C  0.72688065  0.73593421  0.41024588     0.05000
O1328       O  0.77587978  0.75457682  0.46007450    -0.57600
H1329       H  0.79675316  0.71570124  0.46969591     0.17900
O1330       O  0.73776500  0.64470630  0.38739875    -0.64300
H1331       H  0.71771061  0.68408290  0.37788142     0.16400
C1332       C  0.73262704  0.75469592  0.38140405     0.28600
C1333       C  0.71298357  0.76699855  0.37387537    -0.25200
C1334       C  0.68684577  0.76009593  0.39438753    -0.24500
C1335       C  0.68213239  0.74252686  0.42417617     0.40100
C1336       C  0.70212713  0.73068234  0.43191023    -0.27000
O1337       O  0.75695163  0.76051325  0.36005610    -0.58900
H1338       H  0.71716263  0.78044063  0.35086999     0.15700
O1339       O  0.65742585  0.73587215  0.44531708    -0.60300
H1340       H  0.69747344  0.71620402  0.45418759     0.14200
H1341       H  0.75490701  0.64950529  0.37107757     0.46000
H1342       H  0.74734790  0.74368742  0.34278531     0.41400
H1343       H  0.66665716  0.75219732  0.46313149     0.44900
H1344       H  0.79263848  0.77215082  0.44666181     0.36300
C1345       C  0.42489878  0.60316453  0.37316328    -0.27900
C1346       C  0.42687843  0.59089382  0.40426875     0.01700
C1347       C  0.45507301  0.60704263  0.42304690     0.29800
C1348       C  0.48022583  0.63602302  0.41136429    -0.19700
C1349       C  0.47752106  0.64948801  0.38112729    -0.29100
C1350       C  0.44970434  0.63212952  0.36156079     0.43800
C1351       C  0.39784371  0.56341616  0.41810081     0.05000
O1352       O  0.45821820  0.59461797  0.45275718    -0.57600
H1353       H  0.50139008  0.64847896  0.42662779     0.17900
O1354       O  0.44646238  0.64309515  0.33089126    -0.64300
H1355       H  0.40338063  0.59083640  0.35837399     0.16400
C1356       C  0.38134149  0.56783393  0.44436769     0.28600
C1357       C  0.35113870  0.54346132  0.45346458    -0.25200
C1358       C  0.33650363  0.51424949  0.43655887    -0.24500
C1359       C  0.35371657  0.50943647  0.41107387     0.40100
C1360       C  0.38403134  0.53399755  0.40195437    -0.27000
O1361       O  0.39392755  0.59644788  0.46033701    -0.58900
H1362       H  0.33883543  0.54784786  0.47339128     0.15700
O1363       O  0.34089199  0.48130023  0.39412932    -0.60300
H1364       H  0.39638472  0.53042968  0.38144243     0.14200
H1365       H  0.43220631  0.65159623  0.33490037     0.46000
H1366       H  0.38935711  0.60983073  0.44532545     0.41400
H1367       H  0.33046114  0.48405966  0.37406116     0.44900
H1368       H  0.45400735  0.60602136  0.47063699     0.36300
C1369       C  0.57358992  0.74832613  0.61458024    -0.27900
C1370       C  0.57986182  0.77547981  0.59654838     0.01700
C1371       C  0.58697385  0.80309647  0.61424278     0.29800
C1372       C  0.58785411  0.80334854  0.64939190    -0.19700
C1373       C  0.58203968  0.77635127  0.66767331    -0.29100
C1374       C  0.57455833  0.74850421  0.64977718     0.43800
C1375       C  0.57921453  0.77495856  0.55928463     0.05000
O1376       O  0.59369751  0.83022093  0.59738026    -0.57600
H1377       H  0.59373361  0.82504436  0.66231183     0.17900
O1378       O  0.56829865  0.72133221  0.66626178    -0.64300
H1379       H  0.56777773  0.72681133  0.60128539     0.16400
C1380       C  0.59866169  0.76695092  0.54086906     0.35800
C1381       C  0.59799272  0.76706791  0.50563383    -0.25200
C1382       C  0.57852725  0.77574136  0.48830225    -0.24500
C1383       C  0.55897073  0.78360601  0.50680861     0.40100
C1384       C  0.55937349  0.78309611  0.54195749    -0.27000
O1385       O  0.61884989  0.75961093  0.55711830    -0.58900
H1386       H  0.61338167  0.76122543  0.49184385     0.15700
O1387       O  0.53918398  0.79163669  0.49081352    -0.60300
H1388       H  0.54407730  0.78903358  0.55578582     0.14200
H1389       H  0.54487307  0.70838350  0.66756781     0.46000
H1390       H  0.63979687  0.77936462  0.55676511     0.41400
H1391       H  0.52058832  0.77128995  0.48374993     0.44900
H1392       H  0.61623330  0.84001781  0.59065386     0.36300
C1393       C  0.57032392  0.80237156  0.04173627    -0.27900
C1394       C  0.58193728  0.78554371  0.05938608     0.01700
C1395       C  0.59332120  0.76876024  0.04117028     0.29800
C1396       C  0.59275969  0.76879420  0.00606954    -0.19700
C1397       C  0.58154738  0.78593991  0.98832258    -0.29100
C1398       C  0.57030207  0.80292282  0.00656417     0.43800
C1399       C  0.58143275  0.78496129  0.09669526     0.05000
O1400       O  0.60531140  0.75239569  0.05743357    -0.57600
H1401       H  0.60173058  0.75575124  0.99273190     0.17900
O1402       O  0.55801483  0.81907034  0.99039439    -0.64300
H1403       H  0.56077674  0.81480173  0.05525208     0.16400
C1404       C  0.59335749  0.81296792  0.11562592     0.28600
C1405       C  0.59286753  0.81161122  0.15078904    -0.25200
C1406       C  0.58150479  0.78267513  0.16769300    -0.24500
C1407       C  0.56949871  0.75465064  0.14866999     0.40100
C1408       C  0.56912240  0.75595984  0.11361616    -0.27000
O1409       O  0.60621118  0.84185803  0.10004880    -0.58900
H1410       H  0.60236665  0.83344048  0.16483486     0.15700
O1411       O  0.55812357  0.72579141  0.16396720    -0.60300
H1412       H  0.55917786  0.73409395  0.09957463     0.14200
H1413       H  0.57549352  0.84141547  0.98983596     0.46000
H1414       H  0.62935538  0.85013424  0.09957129     0.41400
H1415       H  0.53496993  0.71698779  0.16606159     0.44900
H1416       H  0.62855965  0.76700499  0.05801684     0.36300
C1417       C  0.04192527  0.76580272  0.60217094    -0.27900
C1418       C  0.02995137  0.74632839  0.57382839     0.01700
C1419       C  0.05031165  0.74020352  0.55462585     0.29800
C1420       C  0.08160596  0.75179451  0.56509828    -0.19700
C1421       C  0.09320377  0.76966747  0.59472368    -0.29100
C1422       C  0.07327013  0.77756774  0.61264648     0.43800
C1423       C  0.99543139  0.72891308  0.56716064     0.05000
O1424       O  0.03934916  0.72146084  0.52658431    -0.57600
H1425       H  0.09647063  0.74571925  0.55064148     0.17900
O1426       O  0.08349683  0.79531116  0.64142891    -0.64300
H1427       H  0.02645128  0.77070720  0.61710709     0.16400
C1428       C  0.97467790  0.70595959  0.59022164     0.28600
C1429       C  0.94264631  0.68669029  0.58224781    -0.25200
C1430       C  0.93059773  0.68972925  0.55125609    -0.24500
C1431       C  0.95117945  0.71367489  0.52868549     0.40100
C1432       C  0.98338359  0.73296722  0.53671098    -0.27000
O1433       O  0.98577379  0.70122277  0.62008055    -0.58900
H1434       H  0.92733970  0.66860199  0.60004088     0.15700
O1435       O  0.94049440  0.71748787  0.49811315    -0.60300
H1436       H  0.99917801  0.75049958  0.51872576     0.14200
H1437       H  0.07761563  0.77979602  0.66001237     0.46000
H1438       H  0.99361314  0.68667463  0.61467288     0.41400
H1439       H  0.94420630  0.70413087  0.48229438     0.44900
H1440       H  0.03057472  0.69953110  0.53497176     0.36300
C1441       C  0.28101107  0.01785932  0.79712997    -0.27900
C1442       C  0.27937763  0.00925974  0.76324389     0.01700
C1443       C  0.29437996  0.03314532  0.73870879     0.29800
C1444       C  0.31189085  0.06490272  0.74838801    -0.19700
C1445       C  0.31448642  0.07336131  0.78238861    -0.29100
C1446       C  0.29840753  0.04961860  0.80678558     0.43800
C1447       C  0.26478520  0.97545333  0.75398308     0.05000
O1448       O  0.29340716  0.02560480  0.70538130    -0.57600
H1449       H  0.32434490  0.08290853  0.72939839     0.17900
O1450       O  0.30192209  0.05693507  0.84035861    -0.64300
H1451       H  0.26968630  0.99978827  0.81629778     0.16400
C1452       C  0.27579836  0.95659044  0.76845934     0.28600
C1453       C  0.26456557  0.92588950  0.75676295    -0.25200
C1454       C  0.24220308  0.91324767  0.73056688    -0.24500
C1455       C  0.23019899  0.93178159  0.71705394     0.40100
C1456       C  0.24153595  0.96257346  0.72878936    -0.27000
O1457       O  0.29930693  0.96877895  0.79231581    -0.58900
H1458       H  0.27417585  0.91228828  0.76774504     0.15700
O1459       O  0.20889781  0.92093452  0.69099458    -0.60300
H1460       H  0.23275768  0.97678884  0.71751899     0.14200
H1461       H  0.28403172  0.06010541  0.84601028     0.46000
H1462       H  0.28868322  0.95866657  0.81378628     0.41400
H1463       H  0.18776691  0.91117326  0.70179288     0.44900
H1464       H  0.31164841  0.02240849  0.70208548     0.36300
C1465       C  0.43209556  0.80511264  0.77934734    -0.27900
C1466       C  0.43514482  0.82083033  0.74892792     0.01700
C1467       C  0.46329546  0.83245764  0.73022412     0.29800
C1468       C  0.48730449  0.82693132  0.74139615    -0.19700
C1469       C  0.48338974  0.80944115  0.77091005    -0.29100
C1470       C  0.45585658  0.79949321  0.79047233     0.43800
C1471       C  0.40725726  0.82173179  0.73587428     0.05000
O1472       O  0.46755257  0.84942505  0.70124615    -0.57600
H1473       H  0.50849707  0.83540860  0.72632040     0.17900
O1474       O  0.45156191  0.78371234  0.82030040    -0.64300
H1475       H  0.41060296  0.79611357  0.79403828     0.16400
C1476       C  0.39208653  0.80526578  0.70637942     0.28600
C1477       C  0.36273824  0.80128550  0.69731565    -0.25200
C1478       C  0.34755769  0.81318545  0.71742087    -0.24500
C1479       C  0.36356590  0.83114820  0.74613235     0.40100
C1480       C  0.39300651  0.83495639  0.75533236    -0.27000
O1481       O  0.40492203  0.79144456  0.68712884    -0.58900
H1482       H  0.35141797  0.78791827  0.67478083     0.15700
O1483       O  0.34999888  0.84351634  0.76644531    -0.60300
H1484       H  0.40432052  0.84743995  0.77830666     0.14200
H1485       H  0.45866763  0.80016698  0.83794313     0.46000
H1486       H  0.39520448  0.76942753  0.69556604     0.41400
H1487       H  0.35872487  0.86558108  0.75852604     0.44900
H1488       H  0.46686323  0.83564453  0.68269685     0.36300
C1489       C  0.18841788  0.60791203  0.61620449    -0.27900
C1490       C  0.17222413  0.59519109  0.58606844     0.01700
C1491       C  0.15985101  0.61131881  0.56818059     0.29800
C1492       C  0.16560080  0.64090214  0.57949119    -0.19700
C1493       C  0.18404072  0.65494645  0.60844401    -0.29100
C1494       C  0.19431806  0.63737433  0.62751698     0.43800
C1495       C  0.17343270  0.56820562  0.57121463     0.05000
O1496       O  0.14280637  0.59870388  0.53924093    -0.57600
H1497       H  0.15681871  0.65344330  0.56473184     0.17900
O1498       O  0.21016219  0.64869226  0.65735985    -0.64300
H1499       H  0.19784144  0.59556273  0.63029938     0.16400
C1500       C  0.19951412  0.57422183  0.55128909     0.28600
C1501       C  0.20311258  0.54929132  0.54011296    -0.25200
C1502       C  0.18096600  0.51766697  0.54849091    -0.24500
C1503       C  0.15456362  0.51166680  0.56848472     0.40100
C1504       C  0.15095468  0.53688296  0.57956985    -0.27000
O1505       O  0.22251013  0.60468919  0.54386676    -0.58900
H1506       H  0.22381176  0.55502085  0.52517884     0.15700
O1507       O  0.13215471  0.48142127  0.57739357    -0.60300
H1508       H  0.13097455  0.53203679  0.59532938     0.14200
H1509       H  0.23272965  0.65641149  0.65217538     0.46000
H1510       H  0.21500740  0.61023551  0.52319877     0.41400
H1511       H  0.13861363  0.47813969  0.60000617     0.44900
H1512       H  0.15836667  0.60839326  0.52071412     0.36300
C1513       C  0.96966576  0.73138056  0.06434687    -0.27900
C1514       C  0.98537577  0.71953106  0.08359486     0.01700
C1515       C  0.96824093  0.68862226  0.09634768     0.29800
C1516       C  0.93599269  0.66963674  0.08920445    -0.19700
C1517       C  0.92018596  0.68057174  0.06840623    -0.29100
C1518       C  0.93732191  0.71221122  0.05666225     0.43800
C1519       C  0.02010550  0.73818863  0.08834845     0.05000
O1520       O  0.98312981  0.67638998  0.11501950    -0.57600
H1521       H  0.92377705  0.64568049  0.09886749     0.17900
O1522       O  0.92334295  0.72422447  0.03622931    -0.64300
H1523       H  0.98277153  0.75517880  0.05429892     0.16400
C1524       C  0.04016748  0.73411252  0.06637412     0.28600
C1525       C  0.07233120  0.74725858  0.07416864    -0.25200
C1526       C  0.08516083  0.76500881  0.10368166    -0.24500
C1527       C  0.06524414  0.77062667  0.12463294     0.40100
C1528       C  0.03292170  0.75696897  0.11702281    -0.27000
O1529       O  0.02810672  0.71566920  0.03825086    -0.58900
H1530       H  0.08707947  0.74273242  0.05756746     0.15700
O1531       O  0.07643564  0.78717256  0.15404420    -0.60300
H1532       H  0.01756592  0.75995038  0.13428369     0.14200
H1533       H  0.91323200  0.73225442  0.05174433     0.46000
H1534       H  0.02850441  0.73012144  0.02052010     0.41400
H1535       H  0.08228860  0.80916566  0.14836642     0.44900
H1536       H  0.99025463  0.66623635  0.09846721     0.36300
C1537       C  0.27789084  0.02654844  0.28179812    -0.27900
C1538       C  0.28469406  0.01710479  0.25128569     0.01700
C1539       C  0.30863373  0.03981900  0.23044825     0.29800
C1540       C  0.32688573  0.07116232  0.24131430    -0.19700
C1541       C  0.32121251  0.08046386  0.27267926    -0.29100
C1542       C  0.29555406  0.05806327  0.29232589     0.43800
C1543       C  0.26928323  0.98311190  0.24316359     0.05000
O1544       O  0.31518406  0.03134635  0.20002521    -0.57600
H1545       H  0.34612446  0.08806440  0.22558207     0.17900
O1546       O  0.28906148  0.06605385  0.32303716    -0.64300
H1547       H  0.25947633  0.00918780  0.29799846     0.16400
C1548       C  0.27790046  0.96371859  0.26073722     0.28600
C1549       C  0.26483089  0.93199737  0.25173947    -0.25200
C1550       C  0.24322208  0.91900937  0.22489898    -0.24500
C1551       C  0.23412423  0.93848598  0.20773781     0.40100
C1552       C  0.24732575  0.97032069  0.21683712    -0.27000
O1553       O  0.29987609  0.97587737  0.28613975    -0.58900
H1554       H  0.27232660  0.91775040  0.26535274     0.15700
O1555       O  0.21393763  0.92732826  0.18073040    -0.60300
H1556       H  0.24083597  0.98521958  0.20292784     0.14200
H1557       H  0.27252360  0.07157912  0.31854325     0.46000
H1558       H  0.32055117  0.98292779  0.27510412     0.41400
H1559       H  0.19296683  0.92214219  0.18969331     0.44900
H1560       H  0.32949478  0.02312336  0.20525278     0.36300
C1561       C  0.46152400  0.83824355  0.23665963    -0.27900
C1562       C  0.43028673  0.81839785  0.24762223     0.01700
C1563       C  0.42351538  0.79276317  0.26880455     0.29800
C1564       C  0.44769793  0.78732229  0.27894094    -0.19700
C1565       C  0.47925049  0.80716533  0.26838311    -0.29100
C1566       C  0.48594536  0.83291424  0.24691647     0.43800
C1567       C  0.40417362  0.82293895  0.23554168     0.05000
O1568       O  0.39290637  0.77187677  0.27834335    -0.57600
H1569       H  0.44143045  0.76715049  0.29504680     0.17900
O1570       O  0.51612796  0.85304148  0.23572515    -0.64300
H1571       H  0.46696754  0.85787889  0.22001488     0.16400
C1572       C  0.38538973  0.82823269  0.25833262     0.28600
C1573       C  0.35693849  0.82577141  0.24756001    -0.25200
C1574       C  0.34689575  0.81813872  0.21407459    -0.24500
C1575       C  0.36712209  0.81557430  0.19068937     0.40100
C1576       C  0.39558290  0.81810065  0.20149759    -0.27000
O1577       O  0.39392060  0.83425075  0.29154135    -0.58900
H1578       H  0.34195582  0.82822384  0.26581670     0.15700
O1579       O  0.35920523  0.81051862  0.15723872    -0.60300
H1580       H  0.41011205  0.81457396  0.18356295     0.14200
H1581       H  0.51729661  0.84478500  0.21338529     0.46000
H1582       H  0.40229323  0.85721408  0.29439132     0.41400
H1583       H  0.35113279  0.78771009  0.15353232     0.44900
H1584       H  0.39150095  0.77698596  0.30214235     0.36300
C1585       C  0.16430467  0.61803063  0.06049591    -0.27900
C1586       C  0.17829023  0.60291306  0.07735942     0.01700
C1587       C  0.19789859  0.61794503  0.10526600     0.29800
C1588       C  0.20325800  0.64738979  0.11588526    -0.19700
C1589       C  0.18934234  0.66270222  0.09922524    -0.29100
C1590       C  0.16959992  0.64760287  0.07122611     0.43800
C1591       C  0.17506885  0.57310212  0.06401667     0.05000
O1592       O  0.21364953  0.60498531  0.12099761    -0.57600
H1593       H  0.21874188  0.65836391  0.13726727     0.17900
O1594       O  0.15587613  0.66167709  0.05369140    -0.64300
H1595       H  0.14954367  0.60702147  0.03864293     0.16400
C1596       C  0.16533733  0.54626342  0.08462585     0.28600
C1597       C  0.16805603  0.52070188  0.07318117    -0.25200
C1598       C  0.18048375  0.52139894  0.04118450    -0.24500
C1599       C  0.18771354  0.54720991  0.01962018     0.40100
C1600       C  0.18480957  0.57259123  0.03105866    -0.27000
O1601       O  0.15426849  0.54531401  0.11648499    -0.58900
H1602       H  0.16188078  0.50102256  0.09002679     0.15700
O1603       O  0.19779769  0.54796372  0.98729149    -0.60300
H1604       H  0.19181770  0.59272519  0.01461741     0.14200
H1605       H  0.17243806  0.67654011  0.03790126     0.46000
H1606       H  0.13090233  0.53433907  0.11417088     0.41400
H1607       H  0.22085380  0.56354138  0.98751857     0.44900
H1608       H  0.20365722  0.59815738  0.14345932     0.36300
C1609       C  0.18509055  0.77313776  0.94822843    -0.27900
C1610       C  0.21354752  0.79085596  0.93045653     0.01700
C1611       C  0.24175646  0.80993900  0.94834568     0.29800
C1612       C  0.24134973  0.81075759  0.98340469    -0.19700
C1613       C  0.21306681  0.79241402  0.00142852    -0.29100
C1614       C  0.18463524  0.77387575  0.98340442     0.43800
C1615       C  0.21376729  0.78940825  0.89328925     0.05000
O1616       O  0.27002833  0.82744484  0.93181533    -0.57600
H1617       H  0.26352448  0.82529870  0.99650756     0.17900
O1618       O  0.15625518  0.75650510  0.99976842    -0.64300
H1619       H  0.16308089  0.75886061  0.93475537     0.16400
C1620       C  0.20164901  0.76033417  0.87646360     0.28600
C1621       C  0.20284970  0.75969214  0.84133182    -0.25200
C1622       C  0.21620143  0.78782046  0.82252144    -0.24500
C1623       C  0.22815775  0.81688373  0.83941395     0.40100
C1624       C  0.22682739  0.81748569  0.87448069    -0.27000
O1625       O  0.18992333  0.73261610  0.89422950    -0.58900
H1626       H  0.19365243  0.73714200  0.82878265     0.15700
O1627       O  0.24063414  0.84480306  0.82190720    -0.60300
H1628       H  0.23584429  0.83999248  0.88706479     0.14200
H1629       H  0.14797425  0.77107862  0.00251883     0.46000
H1630       H  0.16658780  0.72184076  0.89160860     0.41400
H1631       H  0.22231534  0.84744159  0.81657738     0.44900
H1632       H  0.27792324  0.81268951  0.92794970     0.36300
C1633       C  0.20686213  0.76275031  0.37581282    -0.27900
C1634       C  0.21558470  0.79072388  0.39334535     0.01700
C1635       C  0.22539204  0.81888858  0.37509871     0.29800
C1636       C  0.22669868  0.81882715  0.33988967    -0.19700
C1637       C  0.21768007  0.79073586  0.32235135    -0.29100
C1638       C  0.20792157  0.76260582  0.34069156     0.43800
C1639       C  0.21593395  0.79054831  0.43064215     0.05000
O1640       O  0.23339218  0.84651126  0.39144936    -0.57600
H1641       H  0.23399488  0.84060106  0.32624173     0.17900
O1642       O  0.19989078  0.73487773  0.32456522    -0.64300
H1643       H  0.19980907  0.74102588  0.38945868     0.16400
C1644       C  0.18896916  0.76940182  0.44934438     0.28600
C1645       C  0.19039258  0.76909783  0.48451231    -0.25200
C1646       C  0.21845727  0.78990926  0.50175715    -0.24500
C1647       C  0.24551089  0.81104585  0.48277473     0.40100
C1648       C  0.24399930  0.81118490  0.44768229    -0.27000
O1649       O  0.16099626  0.74914466  0.43350243    -0.58900
H1650       H  0.16923444  0.75278030  0.49828571     0.15700
O1651       O  0.27368323  0.83172213  0.49804676    -0.60300
H1652       H  0.26507863  0.82725539  0.43363066     0.14200
H1653       H  0.22032392  0.73619614  0.31938263     0.46000
H1654       H  0.14910709  0.76053702  0.43265161     0.41400
H1655       H  0.28433796  0.81940430  0.50213212     0.44900
H1656       H  0.21307485  0.84594373  0.39497104     0.36300
loop_ 
_geom_bond_atom_site_label_1 
_geom_bond_atom_site_label_2 
_geom_bond_distance 
_geom_bond_site_symmetry_2 
_ccdc_geom_bond_type 
Zr1           O2   2.441       .  S
Zr1           O3   2.444       .  S
Zr1           O4   2.441       .  S
Zr1           O7   2.451       .  S
Zr1           O9   2.384       .  S
Zr1          O10   2.384       .  S
Zr1          O11   2.415       .  S
Zr1          O12   2.399       .  S
O2           H58   0.990       .  S
O2           H66   0.991       .  S
O3           C23   1.285       .  A
O4           C25   1.286       .  A
O5          Zr15   2.418       .  S
O5           C24   1.282       .  A
O6          Zr14   2.435       .  S
O6           C25   1.285       .  A
O7           C24   1.288       .  A
O8          Zr16   2.417       .  S
O8           C23   1.281       .  A
O9          Zr14   2.398       .  S
O9          Zr16   2.383       .  S
O10         Zr15   2.392       .  S
O10         Zr16   2.375       .  S
O10          H45   0.965       .  S
O11         Zr14   2.405       .  S
O11         Zr31   2.388       .  S
O11          H48   0.965       .  S
O12         Zr15   2.384       .  S
O12         Zr31   2.383       .  S
Zr13         O38   2.441       .  S
Zr13         O32   2.437       .  S
Zr13         O40   2.459       .  S
Zr13         O28   2.443       .  S
Zr13         O19   2.404       .  S
Zr13         O20   2.409       .  S
Zr13         O21   2.382       .  S
Zr13         O22   2.382       .  S
Zr14         O33   2.437       .  S
Zr14         O26   2.434       .  S
Zr14         O27   2.438       .  S
Zr14         O20   2.399       .  S
Zr14         O21   2.395       .  S
Zr15         O17   2.435       .  S
Zr15         O39   2.440       .  S
Zr15         O41   2.410       .  S
Zr15         O19   2.395       .  S
Zr15         O22   2.395       .  S
Zr16         O42   2.437       .  S
Zr16         O43   2.436       .  S
Zr16         O18   2.437       .  S
Zr16         O19   2.395       .  S
Zr16         O20   2.390       .  S
O17          H54   0.990       .  S
O18          H49   0.990       .  S
O18          H63   0.990       .  S
O20          H46   0.965       .  S
O21         Zr31   2.382       .  S
O22         Zr31   2.379       .  S
O22          H47   0.964       .  S
C23        C1637   1.480       .  S
C24        C1574   1.482       .  S
C25        C1550   1.488       .  S
O26          H62   0.990       .  S
O27          C29   1.285       .  A
O28          C29   1.287       .  A
C29        C1526   1.488       .  S
O30         Zr31   2.439       .  S
O30          H59   0.990       .  S
Zr31         O34   2.435       .  S
Zr31         O35   2.441       .  S
Zr31         O36   2.404       .  S
O32          C37   1.283       .  A
O33          H50   0.990       .  S
O33          H65   0.990       .  S
O34          H51   0.989       .  S
O35          H55   0.990       .  S
O35          H64   0.989       .  S
O36          C37   1.279       .  A
C37        C1613   1.483       .  S
O38          H57   0.990       .  S
O38          H61   0.990       .  S
O39          H53   0.990       .  S
O39          H60   0.990       .  S
O40          C44   1.288       .  A
O41          C44   1.281       .  A
O42          H52   0.989       .  S
O43          H56   0.990       .  S
C44        C1589   1.492       .  S
Zr67         O68   2.442       .  S
Zr67         O69   2.432       .  S
Zr67         O70   2.428       .  S
Zr67         O73   2.453       .  S
Zr67         O75   2.382       .  S
Zr67         O76   2.383       .  S
Zr67         O77   2.407       .  S
Zr67         O78   2.399       .  S
O68         H124   0.991       .  S
O68         H132   0.990       .  S
O69          C89   1.283       .  A
O70          C91   1.285       .  A
O71         Zr81   2.414       .  S
O71          C90   1.283       .  A
O72         Zr80   2.431       .  S
O72          C91   1.284       .  A
O73          C90   1.286       .  A
O74         Zr82   2.414       .  S
O74          C89   1.280       .  A
O75         Zr80   2.393       .  S
O75         Zr82   2.376       .  S
O76         Zr81   2.393       .  S
O76         Zr82   2.382       .  S
O76         H111   0.966       .  S
O77         Zr80   2.398       .  S
O77         Zr97   2.387       .  S
O77         H114   0.964       .  S
O78         Zr81   2.393       .  S
O78         Zr97   2.389       .  S
Zr79        O104   2.440       .  S
Zr79         O98   2.445       .  S
Zr79        O106   2.456       .  S
Zr79         O94   2.449       .  S
Zr79         O85   2.399       .  S
Zr79         O86   2.411       .  S
Zr79         O87   2.380       .  S
Zr79         O88   2.384       .  S
Zr80         O99   2.437       .  S
Zr80         O92   2.435       .  S
Zr80         O93   2.423       .  S
Zr80         O86   2.401       .  S
Zr80         O87   2.393       .  S
Zr81         O83   2.436       .  S
Zr81        O105   2.436       .  S
Zr81        O107   2.423       .  S
Zr81         O85   2.383       .  S
Zr81         O88   2.390       .  S
Zr82        O108   2.436       .  S
Zr82        O109   2.434       .  S
Zr82         O84   2.437       .  S
Zr82         O85   2.387       .  S
Zr82         O86   2.395       .  S
O83         H120   0.990       .  S
O84         H115   0.990       .  S
O84         H129   0.990       .  S
O86         H112   0.966       .  S
O87         Zr97   2.379       .  S
O88         Zr97   2.384       .  S
O88         H113   0.966       .  S
C89        C1622   1.476       .  S
C90        C1478   1.489       .  S
C91        C1454   1.486       .  S
O92         H128   0.990       .  S
O93          C95   1.283       .  A
O94          C95   1.287       .  A
C95        C1421   1.487       .  S
O96         Zr97   2.439       .  S
O96         H125   0.990       .  S
Zr97        O100   2.437       .  S
Zr97        O101   2.439       .  S
Zr97        O102   2.406       .  S
O98         C103   1.287       .  A
O99         H116   0.990       .  S
O99         H131   0.990       .  S
O100        H117   0.990       .  S
O101        H121   0.990       .  S
O101        H130   0.990       .  S
O102        C103   1.279       .  A
C103       C1646   1.488       .  S
O104        H123   0.990       .  S
O104        H127   0.990       .  S
O105        H119   0.990       .  S
O105        H126   0.990       .  S
O106        C110   1.289       .  A
O107        C110   1.283       .  A
O108        H118   0.990       .  S
O109        H122   0.990       .  S
C110       C1493   1.494       .  S
Zr133       O134   2.440       .  S
Zr133       O135   2.437       .  S
Zr133       O136   2.449       .  S
Zr133       O139   2.463       .  S
Zr133       O141   2.385       .  S
Zr133       O142   2.384       .  S
Zr133       O143   2.408       .  S
Zr133       O144   2.398       .  S
O134        H190   0.991       .  S
O134        H198   0.990       .  S
O135        C155   1.284       .  A
O136        C157   1.287       .  A
O137       Zr147   2.411       .  S
O137        C156   1.281       .  A
O138       Zr146   2.434       .  S
O138        C157   1.285       .  A
O139        C156   1.291       .  A
O140       Zr148   2.419       .  S
O140        C155   1.281       .  A
O141       Zr146   2.399       .  S
O141       Zr148   2.379       .  S
O142       Zr147   2.390       .  S
O142       Zr148   2.373       .  S
O142        H177   0.965       .  S
O143       Zr146   2.405       .  S
O143       Zr163   2.383       .  S
O143        H180   0.966       .  S
O144       Zr147   2.391       .  S
O144       Zr163   2.389       .  S
Zr145       O170   2.440       .  S
Zr145       O164   2.444       .  S
Zr145       O172   2.458       .  S
Zr145       O160   2.438       .  S
Zr145       O151   2.406       .  S
Zr145       O152   2.412       .  S
Zr145       O153   2.383       .  S
Zr145       O154   2.380       .  S
Zr146       O165   2.437       .  S
Zr146       O158   2.434       .  S
Zr146       O159   2.444       .  S
Zr146       O152   2.399       .  S
Zr146       O153   2.397       .  S
Zr147       O149   2.435       .  S
Zr147       O171   2.439       .  S
Zr147       O173   2.421       .  S
Zr147       O151   2.393       .  S
Zr147       O154   2.387       .  S
Zr148       O174   2.435       .  S
Zr148       O175   2.435       .  S
Zr148       O150   2.437       .  S
Zr148       O151   2.398       .  S
Zr148       O152   2.389       .  S
O149        H186   0.990       .  S
O150        H181   0.990       .  S
O150        H195   0.990       .  S
O152        H178   0.966       .  S
O153       Zr163   2.379       .  S
O154       Zr163   2.382       .  S
O154        H179   0.966       .  S
C155       C1382   1.478       .  S
C156       C1349   1.493       .  S
C157       C1334   1.487       .  S
O158        H194   0.990       .  S
O159        C161   1.287       .  A
O160        C161   1.286       .  A
C161       C1301   1.492       .  S
O162       Zr163   2.439       .  S
O162        H191   0.990       .  S
Zr163       O166   2.437       .  S
Zr163       O167   2.438       .  S
Zr163       O168   2.403       .  S
O164        C169   1.285       .  A
O165        H182   0.990       .  S
O165        H197   0.990       .  S
O166        H183   0.990       .  S
O167        H187   0.990       .  S
O167        H196   0.990       .  S
O168        C169   1.278       .  A
C169       C1406   1.480       .  S
O170        H189   0.990       .  S
O170        H193   0.990       .  S
O171        H185   0.990       .  S
O171        H192   0.990       .  S
O172        C176   1.288       .  A
O173        C176   1.283       .  A
O174        H184   0.990       .  S
O175        H188   0.990       .  S
C176       C1565   1.498       .  S
Zr199       O200   2.442       .  S
Zr199       O201   2.432       .  S
Zr199       O202   2.432       .  S
Zr199       O205   2.452       .  S
Zr199       O207   2.386       .  S
Zr199       O208   2.379       .  S
Zr199       O209   2.411       .  S
Zr199       O210   2.394       .  S
O200        H256   0.990       .  S
O200        H264   0.991       .  S
O201        C221   1.284       .  A
O202        C223   1.284       .  A
O203       Zr213   2.405       .  S
O203        C222   1.281       .  A
O204       Zr212   2.443       .  S
O204        C223   1.286       .  A
O205        C222   1.287       .  A
O206       Zr214   2.407       .  S
O206        C221   1.278       .  A
O207       Zr212   2.403       .  S
O207       Zr214   2.385       .  S
O208       Zr213   2.389       .  S
O208       Zr214   2.377       .  S
O208        H243   0.964       .  S
O209       Zr212   2.405       .  S
O209       Zr229   2.390       .  S
O209        H246   0.964       .  S
O210       Zr213   2.387       .  S
O210       Zr229   2.392       .  S
Zr211       O236   2.441       .  S
Zr211       O230   2.445       .  S
Zr211       O238   2.452       .  S
Zr211       O226   2.431       .  S
Zr211       O217   2.399       .  S
Zr211       O218   2.413       .  S
Zr211       O219   2.382       .  S
Zr211       O220   2.382       .  S
Zr212       O231   2.436       .  S
Zr212       O224   2.434       .  S
Zr212       O225   2.445       .  S
Zr212       O218   2.401       .  S
Zr212       O219   2.396       .  S
Zr213       O215   2.435       .  S
Zr213       O237   2.437       .  S
Zr213       O239   2.415       .  S
Zr213       O217   2.389       .  S
Zr213       O220   2.387       .  S
Zr214       O240   2.437       .  S
Zr214       O241   2.436       .  S
Zr214       O216   2.438       .  S
Zr214       O217   2.387       .  S
Zr214       O218   2.383       .  S
O215        H252   0.990       .  S
O216        H247   0.991       .  S
O216        H261   0.990       .  S
O218        H244   0.964       .  S
O219       Zr229   2.381       .  S
O220       Zr229   2.382       .  S
O220        H245   0.964       .  S
C221       C1397   1.481       .  S
C222       C1277   1.487       .  S
C223       C1253   1.488       .  S
O224        H260   0.990       .  S
O225        C227   1.288       .  A
O226        C227   1.284       .  A
C227       C1229   1.483       .  S
O228       Zr229   2.439       .  S
O228        H257   0.991       .  S
Zr229       O232   2.438       .  S
Zr229       O233   2.439       .  S
Zr229       O234   2.410       .  S
O230        C235   1.286       .  A
O231        H248   0.990       .  S
O231        H263   0.990       .  S
O232        H249   0.990       .  S
O233        H253   0.990       .  S
O233        H262   0.990       .  S
O234        C235   1.279       .  A
C235       C1373   1.488       .  S
O236        H255   0.990       .  S
O236        H259   0.991       .  S
O237        H251   0.990       .  S
O237        H258   0.990       .  S
O238        C242   1.287       .  A
O239        C242   1.282       .  A
O240        H250   0.990       .  S
O241        H254   0.990       .  S
C242       C1469   1.485       .  S
Zr265       O266   2.442       .  S
Zr265       O267   2.449       .  S
Zr265       O268   2.443       .  S
Zr265       O271   2.440       .  S
Zr265       O273   2.384       .  S
Zr265       O274   2.386       .  S
Zr265       O275   2.415       .  S
Zr265       O276   2.396       .  S
O266        H322   0.990       .  S
O266        H330   0.991       .  S
O267        C287   1.286       .  A
O268        C289   1.286       .  A
O269       Zr279   2.424       .  S
O269        C288   1.284       .  A
O270       Zr278   2.432       .  S
O270        C289   1.284       .  A
O271        C288   1.285       .  A
O272       Zr280   2.411       .  S
O272        C287   1.280       .  A
O273       Zr278   2.397       .  S
O273       Zr280   2.381       .  S
O274       Zr279   2.390       .  S
O274       Zr280   2.383       .  S
O274        H309   0.965       .  S
O275       Zr278   2.399       .  S
O275       Zr295   2.391   1_556  S
O275        H312   0.965       .  S
O276       Zr279   2.380       .  S
O276       Zr295   2.382   1_556  S
Zr277       O302   2.441       .  S
Zr277       O296   2.443       .  S
Zr277       O304   2.470       .  S
Zr277       O292   2.438       .  S
Zr277       O283   2.400   1_554  S
Zr277       O284   2.412   1_554  S
Zr277       O285   2.386       .  S
Zr277       O286   2.383       .  S
Zr278       O297   2.437   1_556  S
Zr278       O290   2.434       .  S
Zr278       O291   2.428   1_556  S
Zr278       O284   2.399       .  S
Zr278       O285   2.394   1_556  S
Zr279       O281   2.436   1_556  S
Zr279       O303   2.437       .  S
Zr279       O305   2.414   1_556  S
Zr279       O283   2.391       .  S
Zr279       O286   2.395   1_556  S
Zr280       O306   2.435       .  S
Zr280       O307   2.435       .  S
Zr280       O282   2.437       .  S
Zr280       O283   2.391       .  S
Zr280       O284   2.384       .  S
O281        H318   0.990       .  S
O282        H313   0.990       .  S
O282        H327   0.990       .  S
O284        H310   0.965       .  S
O285       Zr295   2.373       .  S
O286       Zr295   2.384       .  S
O286        H311   0.967       .  S
C287       C1142   1.484       .  S
C288       C1286   1.481       .  S
C289       C1214   1.493       .  S
O290        H326   0.990       .  S
O291        C293   1.285       .  A
O292        C293   1.286       .  A
C293       C1190   1.480       .  S
O294       Zr295   2.438       .  S
O294        H323   0.990       .  S
Zr295       O298   2.436       .  S
Zr295       O299   2.439       .  S
Zr295       O300   2.408       .  S
O296        C301   1.286       .  A
O297        H314   0.990       .  S
O297        H329   0.990       .  S
O298        H315   0.990       .  S
O299        H319   0.990       .  S
O299        H328   0.990       .  S
O300        C301   1.279       .  A
C301       C1157   1.481       .  S
O302        H321   0.990       .  S
O302        H325   0.990       .  S
O303        H317   0.990       .  S
O303        H324   0.990       .  S
O304        C308   1.291       .  A
O305        C308   1.281       .  A
O306        H316   0.990       .  S
O307        H320   0.990       .  S
C308       C1598   1.491       .  S
Zr331       O332   2.441       .  S
Zr331       O333   2.438       .  S
Zr331       O334   2.443       .  S
Zr331       O337   2.444       .  S
Zr331       O339   2.382       .  S
Zr331       O340   2.388       .  S
Zr331       O341   2.409       .  S
Zr331       O342   2.397       .  S
O332        H388   0.990       .  S
O332        H396   0.990       .  S
O333        C353   1.284       .  A
O334        C355   1.285       .  A
O335       Zr345   2.427       .  S
O335        C354   1.285       .  A
O336       Zr344   2.443       .  S
O336        C355   1.287       .  A
O337        C354   1.286       .  A
O338       Zr346   2.413       .  S
O338        C353   1.281       .  A
O339       Zr344   2.396       .  S
O339       Zr346   2.379       .  S
O340       Zr345   2.388       .  S
O340       Zr346   2.381       .  S
O340        H375   0.966       .  S
O341       Zr344   2.403       .  S
O341       Zr361   2.390       .  S
O341        H378   0.966       .  S
O342       Zr345   2.389       .  S
O342       Zr361   2.385       .  S
Zr343       O368   2.440       .  S
Zr343       O362   2.447       .  S
Zr343       O370   2.451       .  S
Zr343       O358   2.432       .  S
Zr343       O349   2.409       .  S
Zr343       O350   2.409       .  S
Zr343       O351   2.382       .  S
Zr343       O352   2.380       .  S
Zr344       O363   2.435       .  S
Zr344       O356   2.436       .  S
Zr344       O357   2.439       .  S
Zr344       O350   2.397       .  S
Zr344       O351   2.394       .  S
Zr345       O347   2.435       .  S
Zr345       O369   2.436       .  S
Zr345       O371   2.424       .  S
Zr345       O349   2.392       .  S
Zr345       O352   2.391       .  S
Zr346       O372   2.436       .  S
Zr346       O373   2.437       .  S
Zr346       O348   2.438       .  S
Zr346       O349   2.402       .  S
Zr346       O350   2.389       .  S
O347        H384   0.990       .  S
O348        H379   0.990       .  S
O348        H393   0.990       .  S
O350        H376   0.967       .  S
O351       Zr361   2.373       .  S
O352       Zr361   2.377       .  S
O352        H377   0.966       .  S
C353       C1166   1.483       .  S
C354       C1358   1.492       .  S
C355       C1109   1.490       .  S
O356        H392   0.990       .  S
O357        C359   1.286       .  A
O358        C359   1.286       .  A
C359       C1085   1.488       .  S
O360       Zr361   2.438       .  S
O360        H389   0.991       .  S
Zr361       O364   2.437       .  S
Zr361       O365   2.438       .  S
Zr361       O366   2.409       .  S
O362        C367   1.287       .  A
O363        H380   0.990       .  S
O363        H395   0.990       .  S
O364        H381   0.990       .  S
O365        H385   0.990       .  S
O365        H394   0.990       .  S
O366        C367   1.280       .  A
C367       C1133   1.490       .  S
O368        H387   0.990       .  S
O368        H391   0.990       .  S
O369        H383   0.990       .  S
O369        H390   0.990       .  S
O370        C374   1.287       .  A
O371        C374   1.284       .  A
O372        H382   0.990       .  S
O373        H386   0.990       .  S
C374       C1502   1.498       .  S
Zr397       O398   2.442       .  S
Zr397       O399   2.427       .  S
Zr397       O400   2.456       .  S
Zr397       O403   2.452       .  S
Zr397       O405   2.387       .  S
Zr397       O406   2.389       .  S
Zr397       O407   2.408       .  S
Zr397       O408   2.400       .  S
O398        H454   0.991       .  S
O398        H462   0.990       .  S
O399        C419   1.282       .  A
O400        C421   1.287       .  A
O401       Zr411   2.411       .  S
O401        C420   1.282       .  A
O402       Zr410   2.440       .  S
O402        C421   1.286       .  A
O403        C420   1.287       .  A
O404       Zr412   2.418       .  S
O404        C419   1.281       .  A
O405       Zr410   2.398       .  S
O405       Zr412   2.385       .  S
O406       Zr411   2.386       .  S
O406       Zr412   2.374       .  S
O406        H441   0.965       .  S
O407       Zr410   2.404       .  S
O407       Zr427   2.385       .  S
O407        H444   0.965       .  S
O408       Zr411   2.389       .  S
O408       Zr427   2.383       .  S
Zr409       O434   2.441       .  S
Zr409       O428   2.452       .  S
Zr409       O436   2.475       .  S
Zr409       O424   2.443       .  S
Zr409       O415   2.406       .  S
Zr409       O416   2.420       .  S
Zr409       O417   2.386       .  S
Zr409       O418   2.381       .  S
Zr410       O429   2.436       .  S
Zr410       O422   2.436       .  S
Zr410       O423   2.434       .  S
Zr410       O416   2.404       .  S
Zr410       O417   2.399       .  S
Zr411       O413   2.435       .  S
Zr411       O435   2.440       .  S
Zr411       O437   2.418       .  S
Zr411       O415   2.392       .  S
Zr411       O418   2.392       .  S
Zr412       O438   2.435       .  S
Zr412       O439   2.435       .  S
Zr412       O414   2.438       .  S
Zr412       O415   2.397       .  S
Zr412       O416   2.391       .  S
O413        H450   0.990       .  S
O414        H445   0.990       .  S
O414        H459   0.989       .  S
O416        H442   0.965       .  S
O417       Zr427   2.381       .  S
O418       Zr427   2.383       .  S
O418        H443   0.966       .  S
C419       C1037   1.479       .  S
C420       C1013   1.484       .  S
C421       C1118   1.492       .  S
O422        H458   0.990       .  S
O423        C425   1.284       .  A
O424        C425   1.287       .  A
C425       C1541   1.483       .  S
O426       Zr427   2.439       .  S
O426        H455   0.990       .  S
Zr427       O430   2.436       .  S
Zr427       O431   2.440       .  S
Zr427       O432   2.401       .  S
O428        C433   1.287       .  A
O429        H446   0.990       .  S
O429        H461   0.990       .  S
O430        H447   0.990       .  S
O431        H451   0.990       .  S
O431        H460   0.990       .  S
O432        C433   1.278       .  A
C433       C1070   1.491       .  S
O434        H453   0.990       .  S
O434        H457   0.990       .  S
O435        H449   0.990       .  S
O435        H456   0.990       .  S
O436        C440   1.291       .  A
O437        C440   1.282       .  A
O438        H448   0.990       .  S
O439        H452   0.990       .  S
C440        C989   1.500       .  S
Zr463       O464   2.442       .  S
Zr463       O465   2.442       .  S
Zr463       O466   2.445       .  S
Zr463       O469   2.457       .  S
Zr463       O471   2.386       .  S
Zr463       O472   2.381       .  S
Zr463       O473   2.413       .  S
Zr463       O474   2.399       .  S
O464        H520   0.990       .  S
O464        H528   0.991       .  S
O465        C485   1.285       .  A
O466        C487   1.287       .  A
O467       Zr477   2.412       .  S
O467        C486   1.283       .  A
O468       Zr476   2.441       .  S
O468        C487   1.286       .  A
O469        C486   1.289       .  A
O470       Zr478   2.422       .  S
O470        C485   1.282       .  A
O471       Zr476   2.402       .  S
O471       Zr478   2.383       .  S
O472       Zr477   2.387       .  S
O472       Zr478   2.378       .  S
O472        H507   0.965       .  S
O473       Zr476   2.403       .  S
O473       Zr493   2.389       .  S
O473        H510   0.965       .  S
O474       Zr477   2.387       .  S
O474       Zr493   2.390       .  S
Zr475       O500   2.441       .  S
Zr475       O494   2.437       .  S
Zr475       O502   2.448       .  S
Zr475       O490   2.436       .  S
Zr475       O481   2.398       .  S
Zr475       O482   2.411       .  S
Zr475       O483   2.386       .  S
Zr475       O484   2.381       .  S
Zr476       O495   2.435       .  S
Zr476       O488   2.436       .  S
Zr476       O489   2.437       .  S
Zr476       O482   2.404       .  S
Zr476       O483   2.399       .  S
Zr477       O479   2.436       .  S
Zr477       O501   2.437       .  S
Zr477       O503   2.417       .  S
Zr477       O481   2.385       .  S
Zr477       O484   2.385       .  S
Zr478       O504   2.437       .  S
Zr478       O505   2.435       .  S
Zr478       O480   2.437       .  S
Zr478       O481   2.390       .  S
Zr478       O482   2.390       .  S
O479        H516   0.990       .  S
O480        H511   0.990       .  S
O480        H525   0.990       .  S
O482        H508   0.966       .  S
O483       Zr493   2.381       .  S
O484       Zr493   2.376       .  S
O484        H509   0.967       .  S
C485       C1061   1.481   1_556  S
C486        C965   1.492       .  S
C487       C1205   1.494       .  S
O488        H524   0.990       .  S
O489        C491   1.285       .  A
O490        C491   1.284       .  A
C491       C1445   1.474       .  S
O492       Zr493   2.438       .  S
O492        H521   0.990       .  S
Zr493       O496   2.438       .  S
Zr493       O497   2.439       .  S
Zr493       O498   2.413       .  S
O494        C499   1.284       .  A
O495        H512   0.990       .  S
O495        H527   0.990       .  S
O496        H513   0.990       .  S
O497        H517   0.990       .  S
O497        H526   0.990       .  S
O498        C499   1.281       .  A
C499       C1046   1.481       .  S
O500        H519   0.990       .  S
O500        H523   0.990       .  S
O501        H515   0.990       .  S
O501        H522   0.990       .  S
O502        C506   1.287       .  A
O503        C506   1.283       .  A
O504        H514   0.990       .  S
O505        H518   0.990       .  S
C506        C941   1.485       .  S
Zr529       O530   2.442       .  S
Zr529       O531   2.440       .  S
Zr529       O532   2.435       .  S
Zr529       O535   2.450       .  S
Zr529       O537   2.386       .  S
Zr529       O538   2.382       .  S
Zr529       O539   2.414       .  S
Zr529       O540   2.399       .  S
O530        H586   0.991       .  S
O530        H594   0.990       .  S
O531        C551   1.284       .  A
O532        C553   1.284       .  A
O533       Zr543   2.412       .  S
O533        C552   1.282       .  A
O534       Zr542   2.441       .  S
O534        C553   1.286       .  A
O535        C552   1.286       .  A
O536       Zr544   2.409       .  S
O536        C551   1.280       .  A
O537       Zr542   2.403       .  S
O537       Zr544   2.380       .  S
O538       Zr543   2.390       .  S
O538       Zr544   2.377       .  S
O538        H573   0.966       .  S
O539       Zr542   2.404       .  S
O539       Zr559   2.392       .  S
O539        H576   0.966       .  S
O540       Zr543   2.388       .  S
O540       Zr559   2.390       .  S
Zr541       O566   2.441       .  S
Zr541       O560   2.451       .  S
Zr541       O568   2.474       .  S
Zr541       O556   2.451       .  S
Zr541       O547   2.404       .  S
Zr541       O548   2.415       .  S
Zr541       O549   2.389       .  S
Zr541       O550   2.384       .  S
Zr542       O561   2.435       .  S
Zr542       O554   2.435       .  S
Zr542       O555   2.444       .  S
Zr542       O548   2.405       .  S
Zr542       O549   2.397       .  S
Zr543       O545   2.436       .  S
Zr543       O567   2.439       .  S
Zr543       O569   2.410       .  S
Zr543       O547   2.391       .  S
Zr543       O550   2.393       .  S
Zr544       O570   2.435       .  S
Zr544       O571   2.435       .  S
Zr544       O546   2.438       .  S
Zr544       O547   2.393       .  S
Zr544       O548   2.384       .  S
O545        H582   0.990       .  S
O546        H577   0.990       .  S
O546        H591   0.990       .  S
O548        H574   0.964       .  S
O549       Zr559   2.381       .  S
O550       Zr559   2.381       .  S
O550        H575   0.965       .  S
C551        C902   1.485       .  S
C552        C869   1.486       .  S
C553       C1181   1.486       .  S
O554        H590   0.990       .  S
O555        C557   1.288       .  A
O556        C557   1.288       .  A
C557       C1310   1.489       .  S
O558       Zr559   2.439       .  S
O558        H587   0.991       .  S
Zr559       O562   2.438       .  S
Zr559       O563   2.440       .  S
Zr559       O564   2.405       .  S
O560        C565   1.287       .  A
O561        H578   0.990       .  S
O561        H593   0.990       .  S
O562        H579   0.990       .  S
O563        H583   0.990       .  S
O563        H592   0.990       .  S
O564        C565   1.278       .  A
C565        C926   1.487       .  S
O566        H585   0.990       .  S
O566        H589   0.991       .  S
O567        H581   0.990       .  S
O567        H588   0.990       .  S
O568        C572   1.290       .  A
O569        C572   1.281       .  A
O570        H580   0.989       .  S
O571        H584   0.990       .  S
C572        C998   1.495       .  S
Zr595       O596   2.441       .  S
Zr595       O597   2.434       .  S
Zr595       O598   2.446       .  S
Zr595       O601   2.453       .  S
Zr595       O603   2.383       .  S
Zr595       O604   2.382       .  S
Zr595       O605   2.409       .  S
Zr595       O606   2.400       .  S
O596        H652   0.990       .  S
O596        H660   0.991       .  S
O597        C617   1.284       .  A
O598        C619   1.286       .  A
O599       Zr609   2.408       .  S
O599        C618   1.282       .  A
O600       Zr608   2.437       .  S
O600        C619   1.285       .  A
O601        C618   1.288       .  A
O602       Zr610   2.408       .  S
O602        C617   1.279       .  A
O603       Zr608   2.396       .  S
O603       Zr610   2.382       .  S
O604       Zr609   2.390       .  S
O604       Zr610   2.375       .  S
O604        H639   0.966       .  S
O605       Zr608   2.400       .  S
O605       Zr625   2.392       .  S
O605        H642   0.967       .  S
O606       Zr609   2.386       .  S
O606       Zr625   2.388       .  S
Zr607       O632   2.442       .  S
Zr607       O626   2.444       .  S
Zr607       O634   2.452       .  S
Zr607       O622   2.447       .  S
Zr607       O613   2.398       .  S
Zr607       O614   2.416       .  S
Zr607       O615   2.385       .  S
Zr607       O616   2.384       .  S
Zr608       O627   2.436       .  S
Zr608       O620   2.435       .  S
Zr608       O621   2.425       .  S
Zr608       O614   2.409       .  S
Zr608       O615   2.396       .  S
Zr609       O611   2.435       .  S
Zr609       O633   2.436       .  S
Zr609       O635   2.422       .  S
Zr609       O613   2.385       .  S
Zr609       O616   2.387       .  S
Zr610       O636   2.438       .  S
Zr610       O637   2.435       .  S
Zr610       O612   2.437       .  S
Zr610       O613   2.383       .  S
Zr610       O614   2.391       .  S
O611        H648   0.990       .  S
O612        H643   0.990       .  S
O612        H657   0.990       .  S
O614        H640   0.967       .  S
O615       Zr625   2.380       .  S
O616       Zr625   2.382       .  S
O616        H641   0.966       .  S
C617        C917   1.477       .  S
C618        C854   1.487       .  S
C619       C1094   1.488       .  S
O620        H656   0.990       .  S
O621        C623   1.284       .  A
O622        C623   1.287       .  A
C623       C1238   1.490       .  S
O624       Zr625   2.438       .  S
O624        H653   0.990       .  S
Zr625       O628   2.439       .  S
Zr625       O629   2.438       .  S
Zr625       O630   2.410       .  S
O626        C631   1.285       .  A
O627        H644   0.990       .  S
O627        H659   0.990       .  S
O628        H645   0.990       .  S
O629        H649   0.990       .  S
O629        H658   0.990       .  S
O630        C631   1.280       .  A
C631        C893   1.480       .  S
O632        H651   0.990       .  S
O632        H655   0.990       .  S
O633        H647   0.989       .  S
O633        H654   0.990       .  S
O634        C638   1.288       .  A
O635        C638   1.283       .  A
O636        H646   0.990       .  S
O637        H650   0.990       .  S
C638        C950   1.489       .  S
Zr661       O662   2.442       .  S
Zr661       O663   2.448       .  S
Zr661       O664   2.438       .  S
Zr661       O667   2.452       .  S
Zr661       O669   2.383       .  S
Zr661       O670   2.384       .  S
Zr661       O671   2.418   1_556  S
Zr661       O672   2.397   1_556  S
O662        H718   0.990       .  S
O662        H726   0.991       .  S
O663        C683   1.285       .  A
O664        C685   1.285       .  A
O665       Zr675   2.418   1_556  S
O665        C684   1.282       .  A
O666       Zr674   2.438   1_556  S
O666        C685   1.285       .  A
O667        C684   1.288       .  A
O668       Zr676   2.405       .  S
O668        C683   1.280       .  A
O669       Zr674   2.400   1_556  S
O669       Zr676   2.382       .  S
O670       Zr675   2.391   1_556  S
O670       Zr676   2.382       .  S
O670        H705   0.963       .  S
O671       Zr674   2.403       .  S
O671       Zr691   2.389       .  S
O671        H708   0.965       .  S
O672       Zr675   2.385       .  S
O672       Zr691   2.389       .  S
Zr673       O698   2.441       .  S
Zr673       O692   2.446       .  S
Zr673       O700   2.451       .  S
Zr673       O688   2.432       .  S
Zr673       O679   2.403       .  S
Zr673       O680   2.405       .  S
Zr673       O681   2.383       .  S
Zr673       O682   2.379       .  S
Zr674       O693   2.436       .  S
Zr674       O686   2.435   1_554  S
Zr674       O687   2.442       .  S
Zr674       O680   2.397       .  S
Zr674       O681   2.394       .  S
Zr675       O677   2.435       .  S
Zr675       O699   2.439   1_554  S
Zr675       O701   2.412       .  S
Zr675       O679   2.390       .  S
Zr675       O682   2.389       .  S
Zr676       O702   2.434       .  S
Zr676       O703   2.436       .  S
Zr676       O678   2.440       .  S
Zr676       O679   2.395   1_556  S
Zr676       O680   2.380   1_556  S
O677        H714   0.990       .  S
O678        H709   0.990       .  S
O678        H723   0.990       .  S
O680        H706   0.965       .  S
O681       Zr691   2.377       .  S
O682       Zr691   2.376       .  S
O682        H707   0.966       .  S
C683        C806   1.492       .  S
C684        C974   1.488       .  S
C685       C1262   1.492       .  S
O686        H722   0.990       .  S
O687        C689   1.287       .  A
O688        C689   1.286       .  A
C689       C1517   1.494       .  S
O690       Zr691   2.439       .  S
O690        H719   0.990       .  S
Zr691       O694   2.437       .  S
Zr691       O695   2.440       .  S
Zr691       O696   2.413       .  S
O692        C697   1.287       .  A
O693        H710   0.990       .  S
O693        H725   0.990       .  S
O694        H711   0.990       .  S
O695        H715   0.990       .  S
O695        H724   0.990       .  S
O696        C697   1.281       .  A
C697        C821   1.491       .  S
O698        H717   0.990       .  S
O698        H721   0.990       .  S
O699        H713   0.990       .  S
O699        H720   0.990       .  S
O700        C704   1.287       .  A
O701        C704   1.281       .  A
O702        H712   0.990       .  S
O703        H716   0.990       .  S
C704        C878   1.489       .  S
Zr727       O728   2.442       .  S
Zr727       O729   2.451       .  S
Zr727       O730   2.441       .  S
Zr727       O733   2.455       .  S
Zr727       O735   2.387       .  S
Zr727       O736   2.377       .  S
Zr727       O737   2.415       .  S
Zr727       O738   2.405       .  S
O728        H784   0.991       .  S
O728        H792   0.990       .  S
O729        C749   1.287       .  A
O730        C751   1.285       .  A
O731       Zr741   2.404       .  S
O731        C750   1.279       .  A
O732       Zr740   2.441       .  S
O732        C751   1.286       .  A
O733        C750   1.289       .  A
O734       Zr742   2.416       .  S
O734        C749   1.280       .  A
O735       Zr740   2.402       .  S
O735       Zr742   2.385       .  S
O736       Zr741   2.384       .  S
O736       Zr742   2.373       .  S
O736        H771   0.966       .  S
O737       Zr740   2.398       .  S
O737       Zr757   2.394       .  S
O737        H774   0.965       .  S
O738       Zr741   2.386       .  S
O738       Zr757   2.399       .  S
Zr739       O764   2.441       .  S
Zr739       O758   2.444       .  S
Zr739       O766   2.466       .  S
Zr739       O754   2.437       .  S
Zr739       O745   2.400       .  S
Zr739       O746   2.413       .  S
Zr739       O747   2.386       .  S
Zr739       O748   2.380       .  S
Zr740       O759   2.436       .  S
Zr740       O752   2.435       .  S
Zr740       O753   2.433       .  S
Zr740       O746   2.406       .  S
Zr740       O747   2.396       .  S
Zr741       O743   2.435       .  S
Zr741       O765   2.435       .  S
Zr741       O767   2.405       .  S
Zr741       O745   2.392       .  S
Zr741       O748   2.385       .  S
Zr742       O768   2.436       .  S
Zr742       O769   2.435       .  S
Zr742       O744   2.438       .  S
Zr742       O745   2.392       .  S
Zr742       O746   2.387       .  S
O743        H780   0.990       .  S
O744        H775   0.990       .  S
O744        H789   0.990       .  S
O746        H772   0.965       .  S
O747       Zr757   2.375       .  S
O748       Zr757   2.377       .  S
O748        H773   0.966       .  S
C749        C830   1.483       .  S
C750       C1022   1.493       .  S
C751       C1325   1.489       .  S
O752        H788   0.990       .  S
O753        C755   1.285       .  A
O754        C755   1.287       .  A
C755       C1430   1.484       .  S
O756       Zr757   2.437       .  S
O756        H785   0.990       .  S
Zr757       O760   2.438       .  S
Zr757       O761   2.438       .  S
Zr757       O762   2.418       .  S
O758        C763   1.285       .  A
O759        H776   0.990       .  S
O759        H791   0.990       .  S
O760        H777   0.990       .  S
O761        H781   0.990       .  S
O761        H790   0.990       .  S
O762        C763   1.281       .  A
C763        C797   1.476       .  S
O764        H783   0.990       .  S
O764        H787   0.990       .  S
O765        H779   0.990       .  S
O765        H786   0.990       .  S
O766        C770   1.289       .  A
O767        C770   1.280       .  A
O768        H778   0.990       .  S
O769        H782   0.990       .  S
C770        C845   1.491       .  S
C793        C794   1.403       .  A
C793        C798   1.400       .  A
C793        H803   1.084       .  S
C794        C799   1.485       .  S
C794        C795   1.411       .  A
C795        C796   1.403       .  A
C795        O800   1.373       .  S
C796        C797   1.403       .  A
C796        H801   1.084       .  S
C797        C798   1.409       .  A
C798        O802   1.372       .  S
C799        C804   1.406       .  A
C799        C808   1.404       .  A
O800        H816   0.992       .  S
O802        H813   0.992       .  S
C804        C805   1.397       .  A
C804        O809   1.372       .  S
C805        C806   1.410       .  A
C805        H810   1.083       .  S
C806        C807   1.414       .  A
C807        C808   1.403       .  A
C807        O811   1.372       .  S
C808        H812   1.084       .  S
O809        H814   0.992       .  S
O811        H815   0.992       .  S
C817        C818   1.399       .  A
C817        C822   1.399       .  A
C817        H827   1.084       .  S
C818        C823   1.484       .  S
C818        C819   1.409       .  A
C819        C820   1.403       .  A
C819        O824   1.371       .  S
C820        C821   1.407       .  A
C820        H825   1.083       .  S
C821        C822   1.417       .  A
C822        O826   1.372       .  S
C823        C828   1.408       .  A
C823        C832   1.402       .  A
O824        H840   0.992       .  S
O826        H837   0.992       .  S
C828        C829   1.402       .  A
C828        O833   1.372       .  S
C829        C830   1.404       .  A
C829        H834   1.084       .  S
C830        C831   1.413       .  A
C831        C832   1.402       .  A
C831        O835   1.372       .  S
C832        H836   1.084       .  S
O833        H838   0.992       .  S
O835        H839   0.992       .  S
C841        C842   1.396       .  A
C841        C846   1.393       .  A
C841        H851   1.084       .  S
C842        C847   1.482       .  S
C842        C843   1.410       .  A
C843        C844   1.410       .  A
C843        O848   1.372       .  S
C844        C845   1.408       .  A
C844        H849   1.083       .  S
C845        C846   1.417       .  A
C846        O850   1.371       .  S
C847        C852   1.405       .  A
C847        C856   1.407       .  A
O848        H864   0.992       .  S
O850        H861   0.992       .  S
C852        C853   1.397       .  A
C852        O857   1.372       .  S
C853        C854   1.409       .  A
C853        H858   1.084       .  S
C854        C855   1.411       .  A
C855        C856   1.405       .  A
C855        O859   1.372       .  S
C856        H860   1.084       .  S
O857        H862   0.992       .  S
O859        H863   0.992       .  S
C865        C866   1.404       .  A
C865        C870   1.407       .  A
C865        H875   1.083       .  S
C866        C871   1.476       .  S
C866        C867   1.402       .  A
C867        C868   1.394       .  A
C867        O872   1.372       .  S
C868        C869   1.408       .  A
C868        H873   1.084       .  S
C869        C870   1.413       .  A
C870        O874   1.372       .  S
C871        C876   1.405       .  A
C871        C880   1.398       .  A
O872        H888   0.992       .  S
O874        H885   0.992       .  S
C876        C877   1.406       .  A
C876        O881   1.371       .  S
C877        C878   1.410       .  A
C877        H882   1.083       .  S
C878        C879   1.416       .  A
C879        C880   1.396       .  A
C879        O883   1.372       .  S
C880        H884   1.084       .  S
O881        H886   0.992       .  S
O883        H887   0.992       .  S
C889        C890   1.400       .  A
C889        C894   1.397       .  A
C889        H899   1.084       .  S
C890        C895   1.479       .  S
C890        C891   1.409       .  A
C891        C892   1.403       .  A
C891        O896   1.372       .  S
C892        C893   1.405       .  A
C892        H897   1.084       .  S
C893        C894   1.411       .  A
C894        O898   1.372       .  S
C895        C900   1.404       .  A
C895        C904   1.404       .  A
O896        H912   0.992       .  S
O898        H909   0.992       .  S
C900        C901   1.397       .  A
C900        O905   1.372       .  S
C901        C902   1.408   1_556  A
C901        H906   1.083   1_556  S
C902        C903   1.413   1_554  A
C903        C904   1.402       .  A
C903        O907   1.372   1_556  S
C904        H908   1.084       .  S
O905        H910   0.992       .  S
O907        H911   0.992       .  S
C913        C914   1.402       .  A
C913        C918   1.397       .  A
C913        H923   1.084       .  S
C914        C919   1.482       .  S
C914        C915   1.410       .  A
C915        C916   1.400       .  A
C915        O920   1.372       .  S
C916        C917   1.404       .  A
C916        H921   1.084       .  S
C917        C918   1.411       .  A
C918        O922   1.372       .  S
C919        C924   1.410       .  A
C919        C928   1.399       .  A
O920        H936   0.992       .  S
O922        H933   0.992       .  S
C924        C925   1.402       .  A
C924        O929   1.372       .  S
C925        C926   1.406       .  A
C925        H930   1.083       .  S
C926        C927   1.417       .  A
C927        C928   1.397       .  A
C927        O931   1.372       .  S
C928        H932   1.084       .  S
O929        H934   0.992       .  S
O931        H935   0.992       .  S
C937        C938   1.408       .  A
C937        C942   1.407       .  A
C937        H947   1.084       .  S
C938        C943   1.487       .  S
C938        C939   1.406       .  A
C939        C940   1.397       .  A
C939        O944   1.372       .  S
C940        C941   1.406       .  A
C940        H945   1.084       .  S
C941        C942   1.410       .  A
C942        O946   1.371       .  S
C943        C948   1.411       .  A
C943        C952   1.400       .  A
O944        H960   0.992       .  S
O946        H957   0.992       .  S
C948        C949   1.407       .  A
C948        O953   1.373       .  S
C949        C950   1.407       .  A
C949        H954   1.083       .  S
C950        C951   1.414       .  A
C951        C952   1.398       .  A
C951        O955   1.371       .  S
C952        H956   1.084       .  S
O953        H958   0.992       .  S
O955        H959   0.992       .  S
C961        C962   1.405       .  A
C961        C966   1.405       .  A
C961        H971   1.084       .  S
C962        C967   1.485       .  S
C962        C963   1.406       .  A
C963        C964   1.399       .  A
C963        O968   1.372       .  S
C964        C965   1.409       .  A
C964        H969   1.083       .  S
C965        C966   1.413       .  A
C966        O970   1.371       .  S
C967        C972   1.409       .  A
C967        C976   1.401       .  A
O968        H984   0.992       .  S
O970        H981   0.992       .  S
C972        C973   1.404       .  A
C972        O977   1.371       .  S
C973        C974   1.407       .  A
C973        H978   1.083       .  S
C974        C975   1.415       .  A
C975        C976   1.399       .  A
C975        O979   1.372       .  S
C976        H980   1.084       .  S
O977        H982   0.992       .  S
O979        H983   0.992   1_556  S
C985        C986   1.407       .  A
C985        C990   1.409       .  A
C985        H995   1.083       .  S
C986        C991   1.492       .  S
C986        C987   1.406       .  A
C987        C988   1.403       .  A
C987        O992   1.372       .  S
C988        C989   1.411       .  A
C988        H993   1.083       .  S
C989        C990   1.414       .  A
C990        O994   1.370       .  S
C991        C996   1.412       .  A
C991       C1000   1.400       .  A
O992       H1008   0.992       .  S
O994       H1005   0.992       .  S
C996        C997   1.411       .  A
C996       O1001   1.372       .  S
C997        C998   1.407       .  A
C997       H1002   1.083       .  S
C998        C999   1.417       .  A
C999       C1000   1.399       .  A
C999       O1003   1.372       .  S
C1000      H1004   1.084       .  S
O1001      H1006   0.992       .  S
O1003      H1007   0.992       .  S
C1009      C1010   1.406       .  A
C1009      C1014   1.406       .  A
C1009      H1019   1.084       .  S
C1010      C1015   1.482       .  S
C1010      C1011   1.404       .  A
C1011      C1012   1.396       .  A
C1011      O1016   1.372       .  S
C1012      C1013   1.407       .  A
C1012      H1017   1.084       .  S
C1013      C1014   1.411       .  A
C1014      O1018   1.371       .  S
C1015      C1020   1.408       .  A
C1015      C1024   1.398       .  A
O1016      H1032   0.992       .  S
O1018      H1029   0.992       .  S
C1020      C1021   1.404       .  A
C1020      O1025   1.372       .  S
C1021      C1022   1.408       .  A
C1021      H1026   1.083       .  S
C1022      C1023   1.419       .  A
C1023      C1024   1.397       .  A
C1023      O1027   1.372       .  S
C1024      H1028   1.084       .  S
O1025      H1030   0.992       .  S
O1027      H1031   0.992       .  S
C1033      C1034   1.403       .  A
C1033      C1038   1.398       .  A
C1033      H1043   1.084       .  S
C1034      C1039   1.478       .  S
C1034      C1035   1.406       .  A
C1035      C1036   1.398       .  A
C1035      O1040   1.372       .  S
C1036      C1037   1.407       .  A
C1036      H1041   1.084       .  S
C1037      C1038   1.411       .  A
C1038      O1042   1.372       .  S
C1039      C1044   1.405       .  A
C1039      C1048   1.404       .  A
O1040      H1056   0.992       .  S
O1042      H1053   0.992       .  S
C1044      C1045   1.396       .  A
C1044      O1049   1.373       .  S
C1045      C1046   1.407       .  A
C1045      H1050   1.084       .  S
C1046      C1047   1.411       .  A
C1047      C1048   1.401       .  A
C1047      O1051   1.371       .  S
C1048      H1052   1.084       .  S
O1049      H1054   0.992       .  S
O1051      H1055   0.992       .  S
C1057      C1058   1.404       .  A
C1057      C1062   1.401       .  A
C1057      H1067   1.084       .  S
C1058      C1063   1.488       .  S
C1058      C1059   1.410       .  A
C1059      C1060   1.401       .  A
C1059      O1064   1.372       .  S
C1060      C1061   1.404       .  A
C1060      H1065   1.084       .  S
C1061      C1062   1.411       .  A
C1062      O1066   1.372       .  S
C1063      C1068   1.410       .  A
C1063      C1072   1.402       .  A
O1064      H1080   0.992       .  S
O1066      H1077   0.992       .  S
C1068      C1069   1.401       .  A
C1068      O1073   1.371       .  S
C1069      C1070   1.406       .  A
C1069      H1074   1.083       .  S
C1070      C1071   1.418       .  A
C1071      C1072   1.399       .  A
C1071      O1075   1.372       .  S
C1072      H1076   1.084       .  S
O1073      H1078   0.992       .  S
O1075      H1079   0.992       .  S
C1081      C1082   1.401       .  A
C1081      C1086   1.404       .  A
C1081      H1091   1.083       .  S
C1082      C1087   1.479   1_455  S
C1082      C1083   1.405       .  A
C1083      C1084   1.398       .  A
C1083      O1088   1.372       .  S
C1084      C1085   1.407       .  A
C1084      H1089   1.084       .  S
C1085      C1086   1.415       .  A
C1086      O1090   1.371       .  S
C1087      C1092   1.406       .  A
C1087      C1096   1.400       .  A
O1088      H1104   0.992       .  S
O1090      H1101   0.992       .  S
C1092      C1093   1.401       .  A
C1092      O1097   1.372       .  S
C1093      C1094   1.407       .  A
C1093      H1098   1.084       .  S
C1094      C1095   1.415       .  A
C1095      C1096   1.403       .  A
C1095      O1099   1.371       .  S
C1096      H1100   1.084       .  S
O1097      H1102   0.992       .  S
O1099      H1103   0.992       .  S
C1105      C1106   1.404       .  A
C1105      C1110   1.402       .  A
C1105      H1115   1.083       .  S
C1106      C1111   1.491       .  S
C1106      C1107   1.409       .  A
C1107      C1108   1.405       .  A
C1107      O1112   1.371       .  S
C1108      C1109   1.408       .  A
C1108      H1113   1.083       .  S
C1109      C1110   1.413       .  A
C1110      O1114   1.372       .  S
C1111      C1116   1.408       .  A
C1111      C1120   1.405       .  A
O1112      H1128   0.992       .  S
O1114      H1125   0.992       .  S
C1116      C1117   1.405       .  A
C1116      O1121   1.372       .  S
C1117      C1118   1.408       .  A
C1117      H1122   1.083       .  S
C1118      C1119   1.412       .  A
C1119      C1120   1.404       .  A
C1119      O1123   1.371       .  S
C1120      H1124   1.084       .  S
O1121      H1126   0.992       .  S
O1123      H1127   0.992       .  S
C1129      C1130   1.398       .  A
C1129      C1134   1.394       .  A
C1129      H1139   1.084       .  S
C1130      C1135   1.486       .  S
C1130      C1131   1.411       .  A
C1131      C1132   1.408       .  A
C1131      O1136   1.373       .  S
C1132      C1133   1.408       .  A
C1132      H1137   1.083       .  S
C1133      C1134   1.416       .  A
C1134      O1138   1.372       .  S
C1135      C1140   1.407       .  A
C1135      C1144   1.407       .  A
O1136      H1152   0.992       .  S
O1138      H1149   0.992       .  S
C1140      C1141   1.399       .  A
C1140      O1145   1.371       .  S
C1141      C1142   1.407       .  A
C1141      H1146   1.084       .  S
C1142      C1143   1.410       .  A
C1143      C1144   1.402       .  A
C1143      O1147   1.372       .  S
C1144      H1148   1.084       .  S
O1145      H1150   0.992       .  S
O1147      H1151   0.992       .  S
C1153      C1154   1.399       .  A
C1153      C1158   1.397       .  A
C1153      H1163   1.084       .  S
C1154      C1159   1.479       .  S
C1154      C1155   1.409       .  A
C1155      C1156   1.402       .  A
C1155      O1160   1.373       .  S
C1156      C1157   1.404       .  A
C1156      H1161   1.084       .  S
C1157      C1158   1.414       .  A
C1158      O1162   1.372       .  S
C1159      C1164   1.405       .  A
C1159      C1168   1.404       .  A
O1160      H1176   0.992       .  S
O1162      H1173   0.992       .  S
C1164      C1165   1.395       .  A
C1164      O1169   1.372       .  S
C1165      C1166   1.407       .  A
C1165      H1170   1.084       .  S
C1166      C1167   1.413       .  A
C1167      C1168   1.403       .  A
C1167      O1171   1.372       .  S
C1168      H1172   1.084       .  S
O1169      H1174   0.992       .  S
O1171      H1175   0.992       .  S
C1177      C1178   1.402       .  A
C1177      C1182   1.399       .  A
C1177      H1187   1.084       .  S
C1178      C1183   1.481   1_655  S
C1178      C1179   1.406       .  A
C1179      C1180   1.402       .  A
C1179      O1184   1.371       .  S
C1180      C1181   1.407       .  A
C1180      H1185   1.083       .  S
C1181      C1182   1.413       .  A
C1182      O1186   1.372       .  S
C1183      C1188   1.406       .  A
C1183      C1192   1.404       .  A
O1184      H1200   0.992       .  S
O1186      H1197   0.992       .  S
C1188      C1189   1.401       .  A
C1188      O1193   1.372       .  S
C1189      C1190   1.405       .  A
C1189      H1194   1.084       .  S
C1190      C1191   1.411       .  A
C1191      C1192   1.401       .  A
C1191      O1195   1.372       .  S
C1192      H1196   1.084       .  S
O1193      H1198   0.992       .  S
O1195      H1199   0.992       .  S
C1201      C1202   1.402       .  A
C1201      C1206   1.407       .  A
C1201      H1211   1.084       .  S
C1202      C1207   1.482       .  S
C1202      C1203   1.405       .  A
C1203      C1204   1.399       .  A
C1203      O1208   1.373       .  S
C1204      C1205   1.408       .  A
C1204      H1209   1.083       .  S
C1205      C1206   1.417       .  A
C1206      O1210   1.371       .  S
C1207      C1212   1.405       .  A
C1207      C1216   1.401       .  A
O1208      H1224   0.992       .  S
O1210      H1221   0.992       .  S
C1212      C1213   1.399       .  A
C1212      O1217   1.373       .  S
C1213      C1214   1.409       .  A
C1213      H1218   1.083       .  S
C1214      C1215   1.417       .  A
C1215      C1216   1.406       .  A
C1215      O1219   1.372       .  S
C1216      H1220   1.083       .  S
O1217      H1222   0.992       .  S
O1219      H1223   0.992       .  S
C1225      C1226   1.401       .  A
C1225      C1230   1.401       .  A
C1225      H1235   1.084       .  S
C1226      C1231   1.478   1_565  S
C1226      C1227   1.406       .  A
C1227      C1228   1.400       .  A
C1227      O1232   1.372       .  S
C1228      C1229   1.407       .  A
C1228      H1233   1.084       .  S
C1229      C1230   1.412       .  A
C1230      O1234   1.371       .  S
C1231      C1236   1.405       .  A
C1231      C1240   1.400       .  A
O1232      H1248   0.992       .  S
O1234      H1245   0.991       .  S
C1236      C1237   1.400       .  A
C1236      O1241   1.372       .  S
C1237      C1238   1.408       .  A
C1237      H1242   1.083       .  S
C1238      C1239   1.417       .  A
C1239      C1240   1.401       .  A
C1239      O1243   1.371       .  S
C1240      H1244   1.084       .  S
O1241      H1246   0.992       .  S
O1243      H1247   0.992       .  S
C1249      C1250   1.401       .  A
C1249      C1254   1.404       .  A
C1249      H1259   1.084       .  S
C1250      C1255   1.476       .  S
C1250      C1251   1.404       .  A
C1251      C1252   1.398       .  A
C1251      O1256   1.372       .  S
C1252      C1253   1.409       .  A
C1252      H1257   1.084       .  S
C1253      C1254   1.415       .  A
C1254      O1258   1.371       .  S
C1255      C1260   1.404       .  A
C1255      C1264   1.400       .  A
O1256      H1272   0.992       .  S
O1258      H1269   0.992       .  S
C1260      C1261   1.397       .  A
C1260      O1265   1.372       .  S
C1261      C1262   1.410       .  A
C1261      H1266   1.083       .  S
C1262      C1263   1.417       .  A
C1263      C1264   1.404       .  A
C1263      O1267   1.371       .  S
C1264      H1268   1.084       .  S
O1265      H1270   0.992       .  S
O1267      H1271   0.992       .  S
C1273      C1274   1.407       .  A
C1273      C1278   1.406       .  A
C1273      H1283   1.083       .  S
C1274      C1279   1.484       .  S
C1274      C1275   1.406       .  A
C1275      C1276   1.395       .  A
C1275      O1280   1.373       .  S
C1276      C1277   1.407       .  A
C1276      H1281   1.084       .  S
C1277      C1278   1.412       .  A
C1278      O1282   1.371       .  S
C1279      C1284   1.410       .  A
C1279      C1288   1.402       .  A
O1280      H1296   0.992       .  S
O1282      H1293   0.992       .  S
C1284      C1285   1.402       .  A
C1284      O1289   1.371       .  S
C1285      C1286   1.405       .  A
C1285      H1290   1.084       .  S
C1286      C1287   1.411       .  A
C1287      C1288   1.399       .  A
C1287      O1291   1.372       .  S
C1288      H1292   1.084       .  S
O1289      H1294   0.992       .  S
O1291      H1295   0.992       .  S
C1297      C1298   1.404       .  A
C1297      C1302   1.406       .  A
C1297      H1307   1.083       .  S
C1298      C1303   1.488   1_565  S
C1298      C1299   1.407       .  A
C1299      C1300   1.400       .  A
C1299      O1304   1.372       .  S
C1300      C1301   1.407       .  A
C1300      H1305   1.083       .  S
C1301      C1302   1.415       .  A
C1302      O1306   1.371       .  S
C1303      C1308   1.408       .  A
C1303      C1312   1.403       .  A
O1304      H1320   0.992       .  S
O1306      H1317   0.992       .  S
C1308      C1309   1.404       .  A
C1308      O1313   1.372       .  S
C1309      C1310   1.407       .  A
C1309      H1314   1.084       .  S
C1310      C1311   1.413       .  A
C1311      C1312   1.404       .  A
C1311      O1315   1.372       .  S
C1312      H1316   1.084       .  S
O1313      H1318   0.992       .  S
O1315      H1319   0.992       .  S
C1321      C1322   1.401       .  A
C1321      C1326   1.400       .  A
C1321      H1331   1.084       .  S
C1322      C1327   1.481       .  S
C1322      C1323   1.406       .  A
C1323      C1324   1.403       .  A
C1323      O1328   1.371       .  S
C1324      C1325   1.409       .  A
C1324      H1329   1.083       .  S
C1325      C1326   1.414       .  A
C1326      O1330   1.372       .  S
C1327      C1332   1.405       .  A
C1327      C1336   1.402       .  A
O1328      H1344   0.992       .  S
O1330      H1341   0.992       .  S
C1332      C1333   1.403       .  A
C1332      O1337   1.372       .  S
C1333      C1334   1.408       .  A
C1333      H1338   1.084       .  S
C1334      C1335   1.412       .  A
C1335      C1336   1.403       .  A
C1335      O1339   1.372       .  S
C1336      H1340   1.084       .  S
O1337      H1342   0.992       .  S
O1339      H1343   0.992       .  S
C1345      C1346   1.399       .  A
C1345      C1350   1.399       .  A
C1345      H1355   1.084       .  S
C1346      C1351   1.482       .  S
C1346      C1347   1.408       .  A
C1347      C1348   1.406       .  A
C1347      O1352   1.372       .  S
C1348      C1349   1.408       .  A
C1348      H1353   1.083       .  S
C1349      C1350   1.417       .  A
C1350      O1354   1.372       .  S
C1351      C1356   1.406       .  A
C1351      C1360   1.403       .  A
O1352      H1368   0.991       .  S
O1354      H1365   0.992       .  S
C1356      C1357   1.398       .  A
C1356      O1361   1.372       .  S
C1357      C1358   1.409       .  A
C1357      H1362   1.083       .  S
C1358      C1359   1.415       .  A
C1359      C1360   1.405       .  A
C1359      O1363   1.371       .  S
C1360      H1364   1.084       .  S
O1361      H1366   0.992       .  S
O1363      H1367   0.992       .  S
C1369      C1370   1.402       .  A
C1369      C1374   1.400       .  A
C1369      H1379   1.084       .  S
C1370      C1375   1.482       .  S
C1370      C1371   1.408       .  A
C1371      C1372   1.398       .  A
C1371      O1376   1.372       .  S
C1372      C1373   1.406       .  A
C1372      H1377   1.083       .  S
C1373      C1374   1.417       .  A
C1374      O1378   1.372       .  S
C1375      C1380   1.409       .  A
C1375      C1384   1.403       .  A
O1376      H1392   0.992       .  S
O1378      H1389   0.992       .  S
C1380      C1381   1.402       .  A
C1380      O1385   1.372       .  S
C1381      C1382   1.404       .  A
C1381      H1386   1.084       .  S
C1382      C1383   1.411       .  A
C1383      C1384   1.398       .  A
C1383      O1387   1.372       .  S
C1384      H1388   1.084       .  S
O1385      H1390   0.992       .  S
O1387      H1391   0.992       .  S
C1393      C1394   1.403       .  A
C1393      C1398   1.399       .  A
C1393      H1403   1.083       .  S
C1394      C1399   1.484       .  S
C1394      C1395   1.410       .  A
C1395      C1396   1.396       .  A
C1395      O1400   1.372       .  S
C1396      C1397   1.404   1_554  A
C1396      H1401   1.084   1_554  S
C1397      C1398   1.414   1_556  A
C1398      O1402   1.372   1_554  S
C1399      C1404   1.410       .  A
C1399      C1408   1.403       .  A
O1400      H1416   0.992       .  S
O1402      H1413   0.992       .  S
C1404      C1405   1.400       .  A
C1404      O1409   1.372       .  S
C1405      C1406   1.404       .  A
C1405      H1410   1.084       .  S
C1406      C1407   1.413       .  A
C1407      C1408   1.396       .  A
C1407      O1411   1.372       .  S
C1408      H1412   1.083       .  S
O1409      H1414   0.992       .  S
O1411      H1415   0.992       .  S
C1417      C1418   1.401       .  A
C1417      C1422   1.401       .  A
C1417      H1427   1.084       .  S
C1418      C1423   1.481   1_455  S
C1418      C1419   1.407       .  A
C1419      C1420   1.400       .  A
C1419      O1424   1.372       .  S
C1420      C1421   1.407       .  A
C1420      H1425   1.084       .  S
C1421      C1422   1.415       .  A
C1422      O1426   1.372       .  S
C1423      C1428   1.407       .  A
C1423      C1432   1.403       .  A
O1424      H1440   0.992       .  S
O1426      H1437   0.992       .  S
C1428      C1429   1.397       .  A
C1428      O1433   1.372       .  S
C1429      C1430   1.405       .  A
C1429      H1434   1.084       .  S
C1430      C1431   1.414       .  A
C1431      C1432   1.404       .  A
C1431      O1435   1.372       .  S
C1432      H1436   1.084       .  S
O1433      H1438   0.992       .  S
O1435      H1439   0.992       .  S
C1441      C1442   1.404       .  A
C1441      C1446   1.400       .  A
C1441      H1451   1.084   1_545  S
C1442      C1447   1.483   1_545  S
C1442      C1443   1.410       .  A
C1443      C1444   1.400       .  A
C1443      O1448   1.372       .  S
C1444      C1445   1.403       .  A
C1444      H1449   1.084       .  S
C1445      C1446   1.409       .  A
C1446      O1450   1.372       .  S
C1447      C1452   1.408       .  A
C1447      C1456   1.403       .  A
O1448      H1464   0.992       .  S
O1450      H1461   0.991       .  S
C1452      C1453   1.398       .  A
C1452      O1457   1.372       .  S
C1453      C1454   1.407       .  A
C1453      H1458   1.084       .  S
C1454      C1455   1.414       .  A
C1455      C1456   1.401       .  A
C1455      O1459   1.371       .  S
C1456      H1460   1.084       .  S
O1457      H1462   0.992       .  S
O1459      H1463   0.992       .  S
C1465      C1466   1.400       .  A
C1465      C1470   1.396       .  A
C1465      H1475   1.084       .  S
C1466      C1471   1.482       .  S
C1466      C1467   1.409       .  A
C1467      C1468   1.405       .  A
C1467      O1472   1.372       .  S
C1468      C1469   1.407       .  A
C1468      H1473   1.083       .  S
C1469      C1470   1.414       .  A
C1470      O1474   1.372       .  S
C1471      C1476   1.405       .  A
C1471      C1480   1.405       .  A
O1472      H1488   0.992       .  S
O1474      H1485   0.992       .  S
C1476      C1477   1.396       .  A
C1476      O1481   1.372       .  S
C1477      C1478   1.408       .  A
C1477      H1482   1.083       .  S
C1478      C1479   1.413       .  A
C1479      C1480   1.405       .  A
C1479      O1483   1.371       .  S
C1480      H1484   1.084       .  S
O1481      H1486   0.992       .  S
O1483      H1487   0.992       .  S
C1489      C1490   1.398       .  A
C1489      C1494   1.399       .  A
C1489      H1499   1.084       .  S
C1490      C1495   1.481       .  S
C1490      C1491   1.407       .  A
C1491      C1492   1.407       .  A
C1491      O1496   1.371       .  S
C1492      C1493   1.409       .  A
C1492      H1497   1.083       .  S
C1493      C1494   1.417       .  A
C1494      O1498   1.372       .  S
C1495      C1500   1.403       .  A
C1495      C1504   1.403       .  A
O1496      H1512   0.991       .  S
O1498      H1509   0.992       .  S
C1500      C1501   1.397       .  A
C1500      O1505   1.372       .  S
C1501      C1502   1.410       .  A
C1501      H1506   1.083       .  S
C1502      C1503   1.418       .  A
C1503      C1504   1.409       .  A
C1503      O1507   1.371       .  S
C1504      H1508   1.083       .  S
O1505      H1510   0.992       .  S
O1507      H1511   0.992       .  S
C1513      C1514   1.402       .  A
C1513      C1518   1.406       .  A
C1513      H1523   1.083       .  S
C1514      C1519   1.479   1_655  S
C1514      C1515   1.403       .  A
C1515      C1516   1.397       .  A
C1515      O1520   1.372       .  S
C1516      C1517   1.410       .  A
C1516      H1521   1.083       .  S
C1517      C1518   1.418       .  A
C1518      O1522   1.371       .  S
C1519      C1524   1.406       .  A
C1519      C1528   1.400       .  A
O1520      H1536   0.992       .  S
O1522      H1533   0.992       .  S
C1524      C1525   1.401       .  A
C1524      O1529   1.372       .  S
C1525      C1526   1.407       .  A
C1525      H1530   1.084       .  S
C1526      C1527   1.415       .  A
C1527      C1528   1.404       .  A
C1527      O1531   1.371       .  S
C1528      H1532   1.084       .  S
O1529      H1534   0.992       .  S
O1531      H1535   0.992       .  S
C1537      C1538   1.401       .  A
C1537      C1542   1.401       .  A
C1537      H1547   1.084       .  S
C1538      C1543   1.478   1_545  S
C1538      C1539   1.406       .  A
C1539      C1540   1.400       .  A
C1539      O1544   1.372       .  S
C1540      C1541   1.406       .  A
C1540      H1545   1.084       .  S
C1541      C1542   1.413       .  A
C1542      O1546   1.371       .  S
C1543      C1548   1.405       .  A
C1543      C1552   1.400       .  A
O1544      H1560   0.992       .  S
O1546      H1557   0.992       .  S
C1548      C1549   1.398       .  A
C1548      O1553   1.372       .  S
C1549      C1550   1.407       .  A
C1549      H1554   1.083       .  S
C1550      C1551   1.416       .  A
C1551      C1552   1.403       .  A
C1551      O1555   1.371       .  S
C1552      H1556   1.084       .  S
O1553      H1558   0.992       .  S
O1555      H1559   0.992       .  S
C1561      C1562   1.403       .  A
C1561      C1566   1.407       .  A
C1561      H1571   1.084       .  S
C1562      C1567   1.484       .  S
C1562      C1563   1.405       .  A
C1563      C1564   1.398       .  A
C1563      O1568   1.373       .  S
C1564      C1565   1.410       .  A
C1564      H1569   1.083       .  S
C1565      C1566   1.417       .  A
C1566      O1570   1.371       .  S
C1567      C1572   1.409       .  A
C1567      C1576   1.402       .  A
O1568      H1584   0.992       .  S
O1570      H1581   0.992       .  S
C1572      C1573   1.402       .  A
C1572      O1577   1.371       .  S
C1573      C1574   1.403       .  A
C1573      H1578   1.083       .  S
C1574      C1575   1.413       .  A
C1575      C1576   1.402       .  A
C1575      O1579   1.373       .  S
C1576      H1580   1.084       .  S
O1577      H1582   0.992       .  S
O1579      H1583   0.992       .  S
C1585      C1586   1.407       .  A
C1585      C1590   1.407       .  A
C1585      H1595   1.083       .  S
C1586      C1591   1.490       .  S
C1586      C1587   1.407       .  A
C1587      C1588   1.399       .  A
C1587      O1592   1.373       .  S
C1588      C1589   1.408       .  A
C1588      H1593   1.083       .  S
C1589      C1590   1.413       .  A
C1590      O1594   1.371       .  S
C1591      C1596   1.411       .  A
C1591      C1600   1.401       .  A
O1592      H1608   0.992       .  S
O1594      H1605   0.992       .  S
C1596      C1597   1.405       .  A
C1596      O1601   1.371       .  S
C1597      C1598   1.405       .  A
C1597      H1602   1.083       .  S
C1598      C1599   1.416       .  A
C1599      C1600   1.402       .  A
C1599      O1603   1.372   1_554  S
C1600      H1604   1.084       .  S
O1601      H1606   0.991       .  S
O1603      H1607   0.992       .  S
C1609      C1610   1.404       .  A
C1609      C1614   1.400       .  A
C1609      H1619   1.083       .  S
C1610      C1615   1.481       .  S
C1610      C1611   1.407       .  A
C1611      C1612   1.396       .  A
C1611      O1616   1.372       .  S
C1612      C1613   1.407   1_556  A
C1612      H1617   1.083       .  S
C1613      C1614   1.412   1_554  A
C1614      O1618   1.372       .  S
C1615      C1620   1.408       .  A
C1615      C1624   1.403       .  A
O1616      H1632   0.992       .  S
O1618      H1629   0.992   1_556  S
C1620      C1621   1.400       .  A
C1620      O1625   1.372       .  S
C1621      C1622   1.405       .  A
C1621      H1626   1.084       .  S
C1622      C1623   1.410       .  A
C1623      C1624   1.398       .  A
C1623      O1627   1.372       .  S
C1624      H1628   1.084       .  S
O1625      H1630   0.992       .  S
O1627      H1631   0.992       .  S
C1633      C1634   1.402       .  A
C1633      C1638   1.398       .  A
C1633      H1643   1.084       .  S
C1634      C1639   1.484       .  S
C1634      C1635   1.411       .  A
C1635      C1636   1.402       .  A
C1635      O1640   1.372       .  S
C1636      C1637   1.404       .  A
C1636      H1641   1.084       .  S
C1637      C1638   1.412       .  A
C1638      O1642   1.371       .  S
C1639      C1644   1.409       .  A
C1639      C1648   1.401       .  A
O1640      H1656   0.992       .  S
O1642      H1653   0.992       .  S
C1644      C1645   1.401       .  A
C1644      O1649   1.371       .  S
C1645      C1646   1.407       .  A
C1645      H1650   1.083       .  S
C1646      C1647   1.417       .  A
C1647      C1648   1.398       .  A
C1647      O1651   1.372       .  S
C1648      H1652   1.084       .  S
O1649      H1654   0.992       .  S
O1651      H1655   0.992       .  S
