geometry optimzed in LAMMPS
_audit_creation_date              2020-11-30 
_audit_creation_method            'lammps2cif' 
_symmetry_space_group_name_H-M    'P1' 
_symmetry_Int_Tables_number       1 
_symmetry_cell_setting            triclinic 
loop_ 
_symmetry_equiv_pos_as_xyz 
  x,y,z 
_cell_length_a                    36.49215948300739 
_cell_length_b                    36.5805658238502 
_cell_length_c                    36.71827673977622 
_cell_angle_alpha                 90.67124516435834 
_cell_angle_beta                  89.84222773263765 
_cell_angle_gamma                 90.17657232042131 
loop_ 
_atom_site_label 
_atom_site_type_symbol 
_atom_site_fract_x 
_atom_site_fract_y 
_atom_site_fract_z 
_atom_site_charge 
C1          C  0.42345115  0.16703247  0.37207664     0.05960
C2          C  0.40071336  0.13635054  0.37164629    -0.10190
C3          C  0.41472068  0.10209142  0.38054074     0.03460
C4          C  0.45199491  0.09827024  0.38910876    -0.08710
C5          C  0.47486804  0.12929208  0.38982383     0.05950
C6          C  0.46004816  0.16365776  0.38230781    -0.08130
H7          H  0.37172543  0.13940173  0.36593163     0.11550
H8          H  0.46343065  0.07132092  0.39318846     0.09080
H9          H  0.47757849  0.18768735  0.38259087     0.08920
C10         C  0.39772122  0.29915815  0.13786026     0.05960
C11         C  0.43225779  0.31436440  0.13117487    -0.10190
C12         C  0.43563275  0.35116401  0.12198890     0.03460
C13         C  0.40453911  0.37312004  0.12023879    -0.08710
C14         C  0.36995988  0.35819636  0.12719709     0.05950
C15         C  0.36638155  0.32117319  0.13588794    -0.08130
H16         H  0.45651881  0.29734143  0.13242622     0.11550
H17         H  0.40738480  0.40211570  0.11494523     0.09080
H18         H  0.33938066  0.30922183  0.13928548     0.08920
C19         C  0.19596057  0.34428889  0.35283159     0.05960
C20         C  0.19366172  0.30600163  0.35290687    -0.10190
C21         C  0.15985941  0.28893111  0.34532264     0.03460
C22         C  0.12910868  0.31016115  0.33782522    -0.08710
C23         C  0.13156334  0.34813572  0.33918782     0.05950
C24         C  0.16486575  0.36518898  0.34585556    -0.08170
H25         H  0.21702796  0.28992781  0.36122210     0.11550
H26         H  0.10258966  0.29719074  0.33387886     0.09080
H27         H  0.16634564  0.39483790  0.34667435     0.08920
C28         C  0.14273143  0.11039686  0.22659429     0.05960
C29         C  0.14138313  0.13916913  0.20172012    -0.10190
C30         C  0.14040835  0.13162178  0.16445477     0.03460
C31         C  0.14186789  0.09566747  0.15174214    -0.08710
C32         C  0.14408660  0.06697978  0.17624666     0.05950
C33         C  0.14447119  0.07413600  0.21381929    -0.08130
H34         H  0.13815591  0.16712200  0.21137994     0.11550
H35         H  0.14211004  0.09004282  0.12264039     0.09080
H36         H  0.14497778  0.05172525  0.23287388     0.08920
O37         O  0.47062606  0.18546392  0.26106959    -0.70110
O38         O  0.48431303  0.07462517  0.25550811    -0.71090
O39         O  0.49330597  0.12922082  0.30909587    -0.59710
O40         O  0.05586843  0.14049514  0.23792704    -0.68120
O41         O  0.03987664  0.13075380  0.29551653    -0.67680
O42         O  0.55222013  0.13747713  0.29601773    -0.58930
O43         O  0.98812352  0.07840170  0.27023906    -0.71440
O44         O  0.98741250  0.18867887  0.28679322    -0.70220
Cu45       Cu  0.47502507  0.12959500  0.25893398     1.04560
Cu46       Cu  0.98720725  0.13319779  0.28077479     1.04330
C47         C  0.99462130  0.21015955  0.26037872     0.96090
C48         C  0.99842072  0.06556112  0.23926343     0.95230
C49         C  0.52668285  0.13178648  0.31899291     0.87370
C50         C  0.06427571  0.13403119  0.27095345     0.93640
O51         O  0.18928652  0.21208785  0.49104423    -0.70110
O52         O  0.07851140  0.20237219  0.49239452    -0.71090
O53         O  0.13477926  0.20303298  0.43742954    -0.59710
O54         O  0.12894312  0.17411213  0.04960197    -0.68120
O55         O  0.13706090  0.22949065  0.07399941    -0.67680
O56         O  0.12788411  0.26343920  0.43651516    -0.58930
O57         O  0.08293631  0.25524604  0.02533953    -0.71440
O58         O  0.19344505  0.24460429  0.02259680    -0.70220
Cu59       Cu  0.13420406  0.20485368  0.49178769     1.04560
Cu60       Cu  0.13840300  0.25193261  0.02471646     1.04330
C61         C  0.20779186  0.21478899  0.01087298     0.96090
C62         C  0.06233537  0.22989533  0.01244317     0.95230
C63         C  0.13332606  0.23293587  0.42017088     0.87370
C64         C  0.13284237  0.19510887  0.07727978     0.93640
O65         O  0.28681281  0.00095011  0.18204395    -0.70110
O66         O  0.28148972  0.01110399  0.07208442    -0.71090
O67         O  0.23230661  0.02088127  0.13250679    -0.59710
O68         O  0.31328139  0.46917217  0.11917755    -0.68120
O69         O  0.26138589  0.43825299  0.12719705    -0.67680
O70         O  0.21281194  0.96321746  0.12972930    -0.58930
O71         O  0.22786625  0.48223981  0.07272800    -0.71440
O72         O  0.23981866  0.48908989  0.18267043    -0.70220
Cu73       Cu  0.28473991  0.00793196  0.12715999     1.04560
Cu74       Cu  0.23206937  0.48458025  0.12792890     1.04330
C75         C  0.26811173  0.50496929  0.19612755     0.96090
C76         C  0.25176609  0.49616144  0.05133922     0.95230
C77         C  0.20680752  0.99711933  0.13495881     0.87370
C78         C  0.29611046  0.43909343  0.12329326     0.93640
O79         O  0.00733436  0.44575767  0.23256276    -0.70110
O80         O  0.01547810  0.33588601  0.22311454    -0.71090
O81         O  0.53479339  0.38687934  0.19360301    -0.59710
O82         O  0.05060700  0.39121566  0.26415018    -0.68120
O83         O  0.00980942  0.38581474  0.30899181    -0.67680
O84         O  0.47494875  0.38240073  0.20458519    -0.58930
O85         O  0.48509303  0.32735037  0.25755401    -0.71440
O86         O  0.47821001  0.43839308  0.25766865    -0.70220
Cu87       Cu  0.01275000  0.39114864  0.22618420     1.04560
Cu88       Cu  0.47957248  0.38296707  0.25818342     1.04330
C89         C  0.98435202  0.45968511  0.25508491     0.96090
C90         C  0.99759039  0.31497016  0.24452361     0.95230
C91         C  0.50192929  0.38399799  0.18249101     0.87370
C92         C  0.04278583  0.38795549  0.29771989     0.93640
O93         O  0.29477864  0.49706928  0.42588036    -0.70110
O94         O  0.28473769  0.49751555  0.31516085    -0.71090
O95         O  0.33040019  0.99640648  0.37716036    -0.59710
O96         O  0.28404082  0.44273434  0.37010492    -0.68120
O97         O  0.22410967  0.45089017  0.37746565    -0.67680
O98         O  0.30033112  0.04913816  0.37632467    -0.58930
O99         O  0.25756433  0.02158555  0.31746339    -0.71440
O100        O  0.24678872  0.02358737  0.42713372    -0.70220
Cu101      Cu  0.29207401  0.49690451  0.37034247     1.04560
Cu102      Cu  0.25139275  0.02433633  0.37223662     1.04330
C103        C  0.26661344  0.50141810  0.44641244     0.96090
C104        C  0.25277475  0.50072015  0.30118547     0.95230
C105        C  0.33027112  0.03124297  0.37767262     0.87370
C106        C  0.25173917  0.42989644  0.37329067     0.93640
O107        O  0.32211618  0.25829021  0.49281001    -0.70110
O108        O  0.43206391  0.26981298  0.50351446    -0.71090
O109        O  0.38281856  0.26216068  0.44406124    -0.59710
O110        O  0.39067513  0.26479047  0.05516965    -0.68120
O111        O  0.39006874  0.20398972  0.05515246    -0.67680
O112        O  0.38837306  0.20194869  0.44984692    -0.58930
O113        O  0.44098718  0.20744585  0.99503295    -0.71440
O114        O  0.32894725  0.20659296  0.00660726    -0.70220
Cu115      Cu  0.37678776  0.26639350  0.49809111     1.04560
Cu116      Cu  0.38482868  0.20455468  0.00069988     1.04330
C117        C  0.31202693  0.23718423  0.00956701     0.96090
C118        C  0.45800178  0.23821371  0.99402127     0.95230
C119        C  0.38755619  0.23048422  0.43023055     0.87370
C120        C  0.39132883  0.23454624  0.07206606     0.93640
C121        C  0.24584620  0.49328540  0.01112132    -0.13600
C122        C  0.27128450  0.50117448  0.48688715    -0.28780
H123        H  0.29377349  0.00669246  0.00097425     0.15420
H124        H  0.29900864  0.49886509  0.49727586     0.16000
C125        C  0.24724627  0.49977467  0.26088386    -0.13600
C126        C  0.27407302  0.50649163  0.23639245    -0.28780
H127        H  0.27145494  0.02272804  0.24802831     0.15420
H128        H  0.30119817  0.51396157  0.24610853     0.16000
C129        C  0.49896082  0.24058502  0.99146300    -0.13600
C130        C  0.02187506  0.23421876  0.01461744    -0.28780
H131        H  0.51114021  0.26765996  0.99353771     0.15420
H132        H  0.00694423  0.19871248  0.49398044     0.16000
C133        C  0.24842957  0.21064684  0.00892310    -0.13600
C134        C  0.27147491  0.23917323  0.01386601    -0.28780
H135        H  0.25447496  0.27685804  0.48888291     0.15420
H136        H  0.26003927  0.26597426  0.01986123     0.16000
C137        C  0.00365402  0.02549257  0.23364567    -0.13600
C138        C  0.97993155  0.49992678  0.25763315    -0.28780
H139        H  0.02394728  0.01660252  0.21375398     0.15420
H140        H  0.47572338  0.50929831  0.24562244     0.16000
C141        C  0.99143001  0.25046482  0.26593282    -0.13600
C142        C  0.00202865  0.27468489  0.24046983    -0.28780
H143        H  0.97968370  0.26038482  0.29139142     0.15420
H144        H  0.54760678  0.26098146  0.24546437     0.16000
C145        C  0.17209262  0.00961788  0.14724730    -0.10440
C146        C  0.15266146  0.03162160  0.16190466    -0.12000
C147        C  0.13384666  0.17910520  0.11235390    -0.10440
C148        C  0.13656209  0.16015524  0.13859001    -0.12000
C149        C  0.12933099  0.11789379  0.26252245    -0.10440
C150        C  0.10188017  0.12693836  0.27810272    -0.12000
C151        C  0.22825662  0.36408153  0.36310116    -0.10440
C152        C  0.24518769  0.39151388  0.36989023    -0.12000
C153        C  0.07215086  0.38241975  0.32192215    -0.10440
C154        C  0.09962255  0.36941317  0.33350192    -0.12000
C155        C  0.15285532  0.25277915  0.35789968    -0.10440
C156        C  0.14208171  0.23431378  0.38245711    -0.12000
C157        C  0.49367753  0.37951314  0.14500910    -0.10440
C158        C  0.47081420  0.36801695  0.12463407    -0.12000
C159        C  0.33871389  0.38170495  0.12559779    -0.10440
C160        C  0.31674330  0.40603382  0.12421565    -0.12000
C161        C  0.39282952  0.23714437  0.11072000    -0.10440
C162        C  0.39414653  0.26037256  0.13393728    -0.12000
C163        C  0.40732458  0.20251969  0.37252790    -0.10440
C164        C  0.39466835  0.22517545  0.39255215    -0.12000
C165        C  0.38987460  0.07160588  0.38055382    -0.10440
C166        C  0.36416868  0.05093463  0.37960582    -0.12000
C167        C  0.51349187  0.12555367  0.38332894    -0.10440
C168        C  0.53307313  0.12787003  0.35710054    -0.12000
C169        C  0.32862027  0.20504881  0.84243264     0.05960
C170        C  0.30051689  0.18278962  0.85595264    -0.10190
C171        C  0.29214193  0.14974698  0.83839148     0.03460
C172        C  0.31102504  0.13951688  0.80658924    -0.08710
C173        C  0.33891271  0.16188873  0.79305802     0.05950
C174        C  0.34697099  0.19516380  0.81044454    -0.08130
H175        H  0.28842337  0.18890703  0.88235714     0.11550
H176        H  0.30696497  0.11242374  0.79491204     0.09080
H177        H  0.37082654  0.21075823  0.80202121     0.08920
C178        C  0.32874912  0.28159202  0.65753236     0.05960
C179        C  0.34836578  0.29609297  0.68698769    -0.10190
C180        C  0.33886423  0.33025644  0.70163801     0.03460
C181        C  0.30906060  0.34923891  0.68766752    -0.08710
C182        C  0.28949156  0.33482492  0.65805175     0.05950
C183        C  0.29890302  0.30075160  0.64331940    -0.08130
H184        H  0.37333077  0.28282331  0.69577174     0.11550
H185        H  0.30357545  0.37687135  0.69726042     0.09080
H186        H  0.28575766  0.29115045  0.61850395     0.08920
C187        C  0.22349843  0.33872430  0.83750395     0.05960
C188        C  0.21050566  0.31095217  0.85995955    -0.10190
C189        C  0.17478009  0.29774532  0.85556303     0.03460
C190        C  0.15248742  0.31136121  0.82816631    -0.08710
C191        C  0.16534819  0.33925075  0.80577009     0.05950
C192        C  0.20100740  0.35262931  0.80999648    -0.08170
H193        H  0.22665698  0.30241658  0.88310931     0.11550
H194        H  0.12409888  0.30257966  0.82640384     0.09080
H195        H  0.20981258  0.37622187  0.79458192     0.08920
C196        C  0.15685317  0.15878987  0.69517205     0.05960
C197        C  0.14928994  0.19227272  0.67904360    -0.10190
C198        C  0.17251439  0.20580902  0.65213960     0.03460
C199        C  0.20433731  0.18652246  0.64234921    -0.08710
C200        C  0.21220704  0.15327588  0.65910086     0.05950
C201        C  0.18858034  0.13965240  0.68585739    -0.08130
H202        H  0.12331803  0.20569241  0.68448064     0.11550
H203        H  0.22070842  0.19534820  0.61934989     0.09080
H204        H  0.19310085  0.11266791  0.69693107     0.08920
O205        O  0.50655830  0.17967041  0.72025077    -0.70110
O206        O  0.50625455  0.06988312  0.73667509    -0.71090
O207        O  0.45145355  0.12529456  0.72872301    -0.59710
O208        O  0.03729453  0.12053426  0.72067523    -0.68120
O209        O  0.05974910  0.12672881  0.77667916    -0.67680
O210        O  0.45326009  0.13570355  0.78848226    -0.58930
O211        O  0.01061285  0.07097325  0.80068790    -0.71440
O212        O  0.00765147  0.18226925  0.79136513    -0.70220
Cu213      Cu  0.50632751  0.12446385  0.72623874     1.04560
Cu214      Cu  0.01006628  0.12684349  0.79849154     1.04330
C215        C  0.99597868  0.19581107  0.76149273     0.96090
C216        C  0.99982105  0.05059522  0.77410973     0.95230
C217        C  0.43529654  0.13162598  0.75893988     0.87370
C218        C  0.06432605  0.12469704  0.74238877     0.93640
O219        O  0.18721401  0.18836695  0.00021522    -0.70110
O220        O  0.07650791  0.20078478  0.99885630    -0.71090
O221        O  0.13543467  0.21435675  0.94978647    -0.59710
O222        O  0.13507606  0.21061506  0.54564253    -0.68120
O223        O  0.13037882  0.27122961  0.54463598    -0.67680
O224        O  0.14003405  0.27034887  0.97369745    -0.58930
O225        O  0.07291227  0.26271338  0.49193030    -0.71440
O226        O  0.18327909  0.27237213  0.48883201    -0.70220
Cu227      Cu  0.13164536  0.19245691  0.99884784     1.04560
Cu228      Cu  0.12806824  0.26949402  0.49031091     1.04330
C229        C  0.20364514  0.24403355  0.48970622     0.96090
C230        C  0.05824658  0.23091379  0.49250487     0.95230
C231        C  0.13977029  0.24864902  0.94623042     0.87370
C232        C  0.13517246  0.24162760  0.56186916     0.93640
O233        O  0.28301691  0.99273104  0.68347278    -0.70110
O234        O  0.29875950  0.99178082  0.57372008    -0.71090
O235        O  0.28811844  0.04742317  0.62915257    -0.59710
O236        O  0.28477156  0.44453257  0.61717796    -0.68120
O237        O  0.22420629  0.44253313  0.62383172    -0.67680
O238        O  0.22795106  0.04277786  0.62084634    -0.58930
O239        O  0.21916613  0.49981975  0.57165361    -0.71440
O240        O  0.22935210  0.49445157  0.68216427    -0.70220
Cu241      Cu  0.29283042  0.99269890  0.62887609     1.04560
Cu242      Cu  0.22193229  0.49695002  0.62707276     1.04330
C243        C  0.26148517  0.49493024  0.69618955     0.96090
C244        C  0.24765217  0.50160848  0.55123226     0.95230
C245        C  0.25660426  0.06208126  0.62636225     0.87370
C246        C  0.25498084  0.42650936  0.62068601     0.93640
O247        O  0.00376281  0.42225806  0.72085499    -0.70110
O248        O  0.00567544  0.31290003  0.73995300    -0.71090
O249        O  0.45234558  0.37196320  0.71570169    -0.59710
O250        O  0.05910446  0.36950720  0.73591811    -0.68120
O251        O  0.05134905  0.38150090  0.79495238    -0.67680
O252        O  0.44070081  0.37856361  0.77490350    -0.58930
O253        O  0.49700730  0.32801556  0.78980503    -0.71440
O254        O  0.49240201  0.43762841  0.77851151    -0.70220
Cu255      Cu  0.00514831  0.36716860  0.72810564     1.04560
Cu256      Cu  0.49426662  0.38298731  0.78613214     1.04330
C257        C  0.99909889  0.44490037  0.74732828     0.96090
C258        C  0.00256333  0.30140841  0.77267377     0.95230
C259        C  0.42992220  0.37257443  0.74237450     0.87370
C260        C  0.07215732  0.37511128  0.76760519     0.93640
O261        O  0.29282105  0.50192060  0.92417138    -0.70110
O262        O  0.27802358  0.50039386  0.81438551    -0.71090
O263        O  0.29039585  0.03694603  0.88009324    -0.59710
O264        O  0.29325404  0.44706337  0.86730491    -0.68120
O265        O  0.23323803  0.44055592  0.87595666    -0.67680
O266        O  0.22972739  0.03904882  0.87500714    -0.58930
O267        O  0.23416951  0.98819735  0.81603005    -0.71440
O268        O  0.22399101  0.98015807  0.92667804    -0.70220
Cu269      Cu  0.28749007  0.50143196  0.86899037     1.04560
Cu270      Cu  0.22685932  0.98457310  0.87117877     1.04330
C271        C  0.26548090  0.49876394  0.94586836     0.96090
C272        C  0.24568729  0.49661373  0.80136729     0.95230
C273        C  0.26075104  0.05500924  0.87679726     0.87370
C274        C  0.26480656  0.42697573  0.86965754     0.93640
O275        O  0.32997450  0.26721079  0.00879722    -0.70110
O276        O  0.43984356  0.26802199  0.99586518    -0.71090
O277        O  0.37756269  0.27004149  0.94852531    -0.59710
O278        O  0.37056317  0.26663102  0.55199079    -0.68120
O279        O  0.37670740  0.20641189  0.55709423    -0.67680
O280        O  0.37836699  0.20922993  0.94695094    -0.58930
O281        O  0.43824416  0.20975210  0.50814171    -0.71440
O282        O  0.32830665  0.19823903  0.49791059    -0.70220
Cu283      Cu  0.38475052  0.26949573  0.00218453     1.04560
Cu284      Cu  0.38322471  0.20200399  0.50331620     1.04330
C285        C  0.30792215  0.22626711  0.49400915     0.96090
C286        C  0.45256991  0.24170674  0.50685915     0.95230
C287        C  0.37416663  0.23988753  0.93124518     0.87370
C288        C  0.37026616  0.23773085  0.57111364     0.93640
C289        C  0.24299665  0.50289638  0.51078393    -0.13600
C290        C  0.27191106  0.50085947  0.98606296    -0.28780
H291        H  0.30493723  0.97752301  0.50255819     0.15420
H292        H  0.29909413  0.50880043  0.99524583     0.16000
C293        C  0.23942256  0.49541591  0.76113701    -0.13600
C294        C  0.26700779  0.49488759  0.73649359    -0.28780
H295        H  0.29979691  0.99051811  0.75158700     0.15420
H296        H  0.29511209  0.49518248  0.74617164     0.16000
C297        C  0.49308253  0.24698282  0.50853358    -0.13600
C298        C  0.01763167  0.22644275  0.49326939    -0.28780
H299        H  0.50319194  0.27492928  0.50788410     0.15420
H300        H  0.01079202  0.24977037  0.03748595     0.16000
C301        C  0.24400477  0.24904232  0.48963926    -0.13600
C302        C  0.26766460  0.22096962  0.49159275    -0.28780
H303        H  0.25947880  0.18400161  0.00164774     0.15420
H304        H  0.25721038  0.19315896  0.49259742     0.16000
C305        C  0.00067570  0.00998924  0.77751289    -0.13600
C306        C  0.99887788  0.48497468  0.73993492    -0.28780
H307        H  0.00686708  0.99877533  0.80404669     0.15420
H308        H  0.49365084  0.50349822  0.71578948     0.16000
C309        C  0.99615412  0.23590125  0.75485911    -0.13600
C310        C  0.00290889  0.26154075  0.78062715    -0.28780
H311        H  0.98995174  0.24462592  0.72737276     0.15420
H312        H  0.50233507  0.25759522  0.79597479     0.16000
C313        C  0.25194085  0.10039481  0.63276867    -0.10440
C314        C  0.23845936  0.12850253  0.64346647    -0.12000
C315        C  0.14452518  0.24233362  0.59944826    -0.10440
C316        C  0.15779142  0.23151943  0.62712922    -0.12000
C317        C  0.12824296  0.14121449  0.71508720    -0.10440
C318        C  0.10015706  0.13030228  0.72810283    -0.12000
C319        C  0.25330110  0.36099224  0.84996628    -0.10440
C320        C  0.26643894  0.38891118  0.86140290    -0.12000
C321        C  0.11040129  0.37014602  0.77355893    -0.10440
C322        C  0.13897271  0.35842224  0.78449758    -0.12000
C323        C  0.15868618  0.27655165  0.88384844    -0.10440
C324        C  0.14731808  0.26277538  0.91109882    -0.12000
C325        C  0.39263965  0.36317562  0.73542004    -0.10440
C326        C  0.36516490  0.34940149  0.72360881    -0.12000
C327        C  0.26719849  0.35952267  0.63791462    -0.10440
C328        C  0.25714977  0.38797948  0.62550208    -0.12000
C329        C  0.35960231  0.24120079  0.60828642    -0.10440
C330        C  0.34562751  0.25434390  0.63494369    -0.12000
C331        C  0.34637756  0.22954654  0.86738163    -0.10440
C332        C  0.36183555  0.23958238  0.89450264    -0.12000
C333        C  0.27228781  0.12205654  0.85757160    -0.10440
C334        C  0.26325004  0.09335150  0.87046829    -0.12000
C335        C  0.36666877  0.14640722  0.77000064    -0.10440
C336        C  0.39652883  0.13658757  0.76020833    -0.12000
C337        C  0.35107120  0.72222225  0.35507446     0.05960
C338        C  0.31940411  0.70067152  0.35952083    -0.10190
C339        C  0.32213796  0.66246048  0.35746473     0.03460
C340        C  0.35622206  0.64598575  0.35166771    -0.08710
C341        C  0.38744682  0.66749248  0.34791356     0.05950
C342        C  0.38477798  0.70543604  0.34830948    -0.08130
H343        H  0.29365043  0.71328626  0.36726012     0.11550
H344        H  0.35857295  0.61641249  0.35094108     0.09080
H345        H  0.40953661  0.72187611  0.34662796     0.08920
C346        C  0.43625274  0.82987711  0.11296977     0.05960
C347        C  0.47410712  0.83323513  0.10773593    -0.10190
C348        C  0.48963838  0.86795216  0.10191350     0.03460
C349        C  0.46697748  0.89870555  0.09932142    -0.08710
C350        C  0.42930856  0.89495809  0.10437397     0.05950
C351        C  0.41407124  0.86075089  0.11116919    -0.08130
H352        H  0.49153326  0.80948208  0.11051087     0.11550
H353        H  0.47889109  0.92579702  0.09706703     0.09080
H354        H  0.38463462  0.85807832  0.11473302     0.08920
C355        C  0.11623804  0.89471830  0.37747911     0.05960
C356        C  0.12567695  0.85770539  0.37597748    -0.10190
C357        C  0.09859533  0.83099560  0.37999515     0.03460
C358        C  0.06226647  0.84119842  0.38610087    -0.08710
C359        C  0.05264913  0.87809632  0.38755579     0.05950
C360        C  0.07971643  0.90502429  0.38319316    -0.08170
H361        H  0.15414449  0.84974409  0.37292708     0.11550
H362        H  0.04128274  0.82032907  0.38896587     0.09080
H363        H  0.07215494  0.93365022  0.38241572     0.08920
C364        C  0.08439559  0.64987989  0.11869724     0.05960
C365        C  0.08697127  0.68717386  0.12623302    -0.10190
C366        C  0.12090385  0.70369338  0.13249784     0.03460
C367        C  0.15289469  0.68238152  0.13149313    -0.08710
C368        C  0.15011985  0.64448355  0.12498698     0.05950
C369        C  0.11583726  0.62835352  0.11859114    -0.08130
H370        H  0.06226038  0.70365865  0.12672627     0.11550
H371        H  0.17953040  0.69519063  0.13464082     0.09080
H372        H  0.11350159  0.59896811  0.11489352     0.08920
O373        O  0.49475695  0.68588035  0.22390957    -0.70110
O374        O  0.50225744  0.57560719  0.23206708    -0.71090
O375        O  0.46492595  0.63181753  0.26922729    -0.59710
O376        O  0.97911743  0.62929082  0.18761194    -0.68120
O377        O  0.03797970  0.63590669  0.20202673    -0.67680
O378        O  0.51135325  0.63909897  0.30785088    -0.58930
O379        O  0.03155168  0.58360338  0.25661438    -0.71440
O380        O  0.02362602  0.69445117  0.25232290    -0.70220
Cu381      Cu  0.49694417  0.63040143  0.22629476     1.04560
Cu382      Cu  0.02963947  0.63888680  0.25512822     1.04330
C383        C  0.99275617  0.70894965  0.24445809     0.96090
C384        C  0.00343008  0.56339908  0.25085169     0.95230
C385        C  0.47712584  0.63629064  0.30134770     0.87370
C386        C  0.01273520  0.63082290  0.17852990     0.93640
O387        O  0.18034191  0.72921972  0.50788461    -0.70110
O388        O  0.06967459  0.72079975  0.51577494    -0.71090
O389        O  0.12092154  0.73063248  0.45796705    -0.59710
O390        O  0.11053575  0.73856392  0.05134033    -0.68120
O391        O  0.10340156  0.79890774  0.05308485    -0.67680
O392        O  0.11663837  0.79050417  0.46847014    -0.58930
O393        O  0.04905413  0.78910834  0.99574119    -0.71440
O394        O  0.15915239  0.80477140  0.00030776    -0.70220
Cu395      Cu  0.12522396  0.72273129  0.51166446     1.04560
Cu396      Cu  0.10411973  0.79894055  0.99799906     1.04330
C397        C  0.18080150  0.77746717  0.00227700     0.96090
C398        C  0.03567099  0.75667814  0.99457951     0.95230
C399        C  0.11779829  0.76321543  0.44660856     0.87370
C400        C  0.10874727  0.76861077  0.06906876     0.93640
O401        O  0.29203516  0.51918025  0.17491512    -0.70110
O402        O  0.27985872  0.51261017  0.06461129    -0.71090
O403        O  0.25846220  0.56371560  0.12058971    -0.59710
O404        O  0.33627682  0.99079217  0.12178626    -0.68120
O405        O  0.31665394  0.93361803  0.11390334    -0.67680
O406        O  0.20649212  0.53288196  0.12830211    -0.58930
O407        O  0.25925975  0.95488356  0.06619589    -0.71440
O408        O  0.27038618  0.94275974  0.17672817    -0.70220
Cu409      Cu  0.28771013  0.51727163  0.11955193     1.04560
Cu410      Cu  0.26416338  0.94652734  0.12132807     1.04330
C411        C  0.27906223  0.97034949  0.19685466     0.96090
C412        C  0.27006126  0.98483163  0.05174548     0.95230
C413        C  0.22375442  0.56301450  0.12470478     0.87370
C414        C  0.34252193  0.95710833  0.11538099     0.93640
O415        O  0.02361899  0.94740586  0.24792916    -0.70110
O416        O  0.03769824  0.83647690  0.24978111    -0.71090
O417        O  0.56107279  0.88895666  0.20295538    -0.59710
O418        O  0.02458418  0.89331194  0.30209229    -0.68120
O419        O  0.96453032  0.88304311  0.29947640    -0.67680
O420        O  0.50177257  0.88081869  0.19142881    -0.58930
O421        O  0.49732477  0.82468673  0.24341767    -0.71440
O422        O  0.47880671  0.93368619  0.24419728    -0.70220
Cu423      Cu  0.03314970  0.89240066  0.24905786     1.04560
Cu424      Cu  0.48625547  0.87890214  0.24334017     1.04330
C425        C  0.99094151  0.96017764  0.24807966     0.96090
C426        C  0.00996367  0.81493496  0.24717849     0.95230
C427        C  0.53494136  0.88410528  0.18061820     0.87370
C428        C  0.99361250  0.88909123  0.31766257     0.93640
O429        O  0.27894050  0.97248022  0.43121970    -0.70110
O430        O  0.28527694  0.96780678  0.31912750    -0.71090
O431        O  0.29628789  0.55112059  0.37050318    -0.59710
O432        O  0.23454583  0.94325227  0.37359758    -0.68120
O433        O  0.20457379  0.99577509  0.36864913    -0.67680
O434        O  0.23623431  0.55977618  0.37594990    -0.58930
O435        O  0.22471835  0.50414547  0.32193329    -0.71440
O436        O  0.23500403  0.50584408  0.43211813    -0.70220
Cu437      Cu  0.28336917  0.96808553  0.37534562     1.04560
Cu438      Cu  0.22792671  0.50540655  0.37716124     1.04330
C439        C  0.26092119  0.99855749  0.44656561     0.96090
C440        C  0.27255789  0.99459173  0.30079512     0.95230
C441        C  0.26868485  0.57233340  0.37250886     0.87370
C442        C  0.20469196  0.96101079  0.37079902     0.93640
O443        O  0.31376054  0.77354768  0.51120789    -0.70110
O444        O  0.42408499  0.78526376  0.51256878    -0.71090
O445        O  0.36704256  0.79398323  0.45966314    -0.59710
O446        O  0.36543674  0.80062443  0.05277672    -0.68120
O447        O  0.37307824  0.74029142  0.05127208    -0.67680
O448        O  0.37550926  0.73515276  0.44615790    -0.58930
O449        O  0.41481560  0.74766506  0.98844712    -0.71440
O450        O  0.30682050  0.73635240  0.00857826    -0.70220
Cu451      Cu  0.36857844  0.78144222  0.51238394     1.04560
Cu452      Cu  0.36093426  0.74029527  0.99822778     1.04330
C453        C  0.28591219  0.76425940  0.01046873     0.96090
C454        C  0.42953721  0.77937653  0.98753450     0.95230
C455        C  0.36921342  0.76796790  0.43649701     0.87370
C456        C  0.37544855  0.77101687  0.06775610     0.93640
C457        C  0.27209061  0.98918965  0.01129112    -0.13600
C458        C  0.25445781  0.99983096  0.48679383    -0.28780
H459        H  0.21907227  0.48407805  0.00190103     0.15420
H460        H  0.22946104  0.01294452  0.49627409     0.16000
C461        C  0.27524898  0.99603496  0.26010978    -0.13600
C462        C  0.27942342  0.96679274  0.23754838    -0.28780
H463        H  0.21968061  0.49429141  0.25110671     0.15420
H464        H  0.28068290  0.93959720  0.24900907     0.16000
C465        C  0.47021528  0.78252333  0.98472466    -0.13600
C466        C  0.99501438  0.75056636  0.99229379    -0.28780
H467        H  0.48212786  0.80405640  0.96834021     0.15420
H468        H  0.99843787  0.71740563  0.51814548     0.16000
C469        C  0.22092425  0.78452324  0.00518678    -0.13600
C470        C  0.24558864  0.75809677  0.01185557    -0.28780
H471        H  0.24667402  0.79247305  0.51515277     0.15420
H472        H  0.23604549  0.73023062  0.01561352     0.16000
C473        C  0.00774270  0.52310594  0.25061924    -0.13600
C474        C  0.98422520  0.00016248  0.25179271    -0.28780
H475        H  0.03483974  0.51218610  0.24489927     0.15420
H476        H  0.46858117  0.00453605  0.24963456     0.16000
C477        C  0.98812512  0.74966816  0.24307744    -0.13600
C478        C  0.01562558  0.77428177  0.24779959    -0.28780
H479        H  0.96063952  0.75971271  0.23806535     0.15420
H480        H  0.56116148  0.76295451  0.26470849     0.16000
C481        C  0.20334405  0.59637861  0.12509580    -0.10440
C482        C  0.18165338  0.62110889  0.12524591    -0.12000
C483        C  0.11527612  0.76607154  0.10721500    -0.10440
C484        C  0.12190139  0.74268497  0.12890115    -0.12000
C485        C  0.04899531  0.63358795  0.12137731    -0.10440
C486        C  0.02398354  0.62798448  0.14162130    -0.12000
C487        C  0.14447895  0.92168929  0.37339254    -0.10440
C488        C  0.17085418  0.94129713  0.37111220    -0.12000
C489        C  0.99388603  0.88979770  0.35635125    -0.10440
C490        C  0.01520094  0.88696483  0.38084573    -0.12000
C491        C  0.10875638  0.79416884  0.38709987    -0.10440
C492        C  0.11477930  0.77106880  0.40901882    -0.12000
C493        C  0.54143178  0.88076740  0.14248996    -0.10440
C494        C  0.52611924  0.87425955  0.11437225    -0.12000
C495        C  0.40557391  0.92586445  0.10590101    -0.10440
C496        C  0.37897885  0.94462492  0.10980770    -0.12000
C497        C  0.39613365  0.77488774  0.10034449    -0.10440
C498        C  0.41824200  0.79502431  0.11413053    -0.12000
C499        C  0.35279135  0.75781731  0.37139537    -0.10440
C500        C  0.36095833  0.77340092  0.39909420    -0.12000
C501        C  0.29168848  0.63875208  0.36463258    -0.10440
C502        C  0.27532376  0.61069297  0.36967471    -0.12000
C503        C  0.42236935  0.65099733  0.34236125    -0.10440
C504        C  0.45075531  0.64119141  0.32927611    -0.12000
C505        C  0.31141831  0.72110965  0.85329610     0.05960
C506        C  0.28003504  0.69971867  0.85976658    -0.10190
C507        C  0.28259743  0.66156227  0.85707730     0.03460
C508        C  0.31613255  0.64508689  0.84872872    -0.08710
C509        C  0.34698706  0.66644171  0.84311319     0.05950
C510        C  0.34455673  0.70433059  0.84408770    -0.08130
H511        H  0.25495474  0.71233347  0.86949365     0.11550
H512        H  0.31857034  0.61552368  0.84796421     0.09080
H513        H  0.36929003  0.72064987  0.84122907     0.08920
C514        C  0.34629926  0.77406419  0.65405907     0.05960
C515        C  0.37786525  0.79390874  0.66309507    -0.10190
C516        C  0.37733044  0.83196380  0.66272195     0.03460
C517        C  0.34501268  0.85045637  0.65586170    -0.08710
C518        C  0.31310588  0.83099195  0.64748982     0.05950
C519        C  0.31353261  0.79267752  0.64639205    -0.08130
H520        H  0.40367473  0.77981867  0.66698403     0.11550
H521        H  0.34502306  0.88013814  0.65576985     0.09080
H522        H  0.28973937  0.77774800  0.63661447     0.08920
C523        C  0.21317150  0.82745398  0.82378055     0.05960
C524        C  0.19709615  0.79881263  0.84305955    -0.10190
C525        C  0.16180876  0.78673579  0.83400398     0.03460
C526        C  0.14363797  0.80157274  0.80436546    -0.08710
C527        C  0.15930679  0.83060635  0.78536744     0.05950
C528        C  0.19433534  0.84320099  0.79459156    -0.08170
H529        H  0.20981902  0.78944916  0.86794046     0.11550
H530        H  0.11527261  0.79403929  0.79934905     0.09080
H531        H  0.20496217  0.86777276  0.78204937     0.08920
C532        C  0.16557584  0.66122356  0.72156427     0.05960
C533        C  0.15457894  0.69378568  0.70532065    -0.10190
C534        C  0.17382609  0.70727406  0.67547781     0.03460
C535        C  0.20549966  0.68954804  0.66308862    -0.08710
C536        C  0.21673866  0.65715597  0.67935374     0.05950
C537        C  0.19696195  0.64313962  0.70895332    -0.08130
H538        H  0.12850380  0.70597283  0.71284246     0.11550
H539        H  0.21863607  0.69836751  0.63811739     0.09080
H540        H  0.20356069  0.61633591  0.71938969     0.08920
O541        O  0.48766686  0.68470694  0.74291746    -0.70110
O542        O  0.48389443  0.57282987  0.74313653    -0.71090
O543        O  0.44096091  0.63065986  0.77344343    -0.59710
O544        O  0.05385027  0.61883942  0.72256548    -0.68120
O545        O  0.05316471  0.62770317  0.78257253    -0.67680
O546        O  0.47442746  0.63295916  0.82403665    -0.58930
O547        O  0.99765403  0.57260990  0.78766847    -0.71440
O548        O  0.99888017  0.68243494  0.77414927    -0.70220
Cu549      Cu  0.48424562  0.62869739  0.74119778     1.04560
Cu550      Cu  0.99830606  0.62778073  0.78302086     1.04330
C551        C  0.99938683  0.69559607  0.74198866     0.96090
C552        C  0.99770760  0.55081717  0.76014419     0.95230
C553        C  0.44358815  0.63324490  0.80791734     0.87370
C554        C  0.07060340  0.62430178  0.75262390     0.93640
O555        O  0.16789700  0.74482053  0.00147544    -0.70110
O556        O  0.05724870  0.72911834  0.99546874    -0.71090
O557        O  0.11637305  0.73430525  0.94456796    -0.59710
O558        O  0.13012921  0.71910374  0.56572327    -0.68120
O559        O  0.12522971  0.77909425  0.57509046    -0.67680
O560        O  0.10758952  0.79443301  0.94341311    -0.58930
O561        O  0.06496046  0.78062161  0.52501332    -0.71440
O562        O  0.17556515  0.78897226  0.51777379    -0.70220
Cu563      Cu  0.11296012  0.73465871  0.99826197     1.04560
Cu564      Cu  0.12030694  0.78683430  0.52184622     1.04330
C565        C  0.19533587  0.76070242  0.51179659     0.96090
C566        C  0.04982344  0.74923407  0.52091913     0.95230
C567        C  0.11455150  0.76407754  0.92723724     0.87370
C568        C  0.13072324  0.74703228  0.58690799     0.93640
O569        O  0.28974244  0.49605391  0.67550132    -0.70110
O570        O  0.27957601  0.50211567  0.56560409    -0.71090
O571        O  0.28418212  0.55377713  0.62561966    -0.59710
O572        O  0.29299963  0.93822783  0.62881761    -0.68120
O573        O  0.23298200  0.93360392  0.61947563    -0.67680
O574        O  0.22352704  0.55109213  0.63115735    -0.58930
O575        O  0.23878232  0.98885160  0.56465564    -0.71440
O576        O  0.22308606  0.98801663  0.67486572    -0.70220
Cu577      Cu  0.28665083  0.49912224  0.62046449     1.04560
Cu578      Cu  0.22862084  0.98827546  0.61948873     1.04330
C579        C  0.25053244  0.99019238  0.69650638     0.96090
C580        C  0.27150798  0.98987385  0.55188995     0.95230
C581        C  0.25343306  0.56916205  0.63177521     0.87370
C582        C  0.26406480  0.91890937  0.62489354     0.93640
O583        O  0.99532438  0.92676937  0.72271821    -0.70110
O584        O  0.99757925  0.81550105  0.72850801    -0.71090
O585        O  0.49543427  0.87119072  0.70668376    -0.59710
O586        O  0.05109933  0.87199188  0.72495358    -0.68120
O587        O  0.05004594  0.87635487  0.78540152    -0.67680
O588        O  0.44758382  0.88312233  0.74259825    -0.58930
O589        O  0.47293641  0.82963787  0.79088106    -0.71440
O590        O  0.48537628  0.93987484  0.78036853    -0.70220
Cu591      Cu  0.99646020  0.87105924  0.72316829     1.04560
Cu592      Cu  0.47740080  0.88521318  0.78716669     1.04330
C593        C  0.99490327  0.94638388  0.75187856     0.96090
C594        C  0.99715212  0.80068412  0.75997820     0.95230
C595        C  0.46109310  0.87515555  0.71155696     0.87370
C596        C  0.06765285  0.87319309  0.75540844     0.93640
O597        O  0.28444910  0.97942722  0.93223295    -0.70110
O598        O  0.29453388  0.98560235  0.82207971    -0.71090
O599        O  0.27737570  0.55494148  0.87040358    -0.59710
O600        O  0.28859796  0.92758386  0.87223389    -0.68120
O601        O  0.22804954  0.93059189  0.86632407    -0.67680
O602        O  0.21743857  0.54827973  0.87927818    -0.58930
O603        O  0.21821528  0.49385897  0.82297791    -0.71440
O604        O  0.23314108  0.49454080  0.93294803    -0.70220
Cu605      Cu  0.29157301  0.98236963  0.87718072     1.04560
Cu606      Cu  0.22347344  0.49394503  0.87824819     1.04330
C607        C  0.25254704  0.97840959  0.94684018     0.96090
C608        C  0.26624165  0.98779645  0.80168937     0.95230
C609        C  0.24544383  0.56853485  0.87467566     0.87370
C610        C  0.25771410  0.91231590  0.86612777     0.93640
O611        O  0.29963270  0.79655596  0.00951940    -0.70110
O612        O  0.40947705  0.80805830  0.99008429    -0.71090
O613        O  0.34303965  0.80576722  0.94749745    -0.59710
O614        O  0.36888784  0.76478717  0.56356946    -0.68120
O615        O  0.37392708  0.70554856  0.55009808    -0.67680
O616        O  0.34877469  0.74522654  0.94548035    -0.58930
O617        O  0.43110922  0.72615882  0.50052025    -0.71440
O618        O  0.32023690  0.71504847  0.49599013    -0.70220
Cu619      Cu  0.35417593  0.80488359  0.00027739     1.04560
Cu620      Cu  0.37575617  0.71847263  0.49747759     1.04330
C621        C  0.29960149  0.74240516  0.50335979     0.96090
C622        C  0.44504410  0.75769189  0.50733899     0.95230
C623        C  0.34065590  0.77548308  0.93042381     0.87370
C624        C  0.36942407  0.73135044  0.57316333     0.93640
C625        C  0.27855698  0.98782947  0.51173464    -0.13600
C626        C  0.24837539  0.97409752  0.98719340    -0.28780
H627        H  0.21521889  0.50452824  0.50039394     0.15420
H628        H  0.22470108  0.95922734  0.99727180     0.16000
C629        C  0.27169022  0.98967352  0.76137186    -0.13600
C630        C  0.24414611  0.98951424  0.73679110    -0.28780
H631        H  0.21127166  0.49486325  0.75161953     0.15420
H632        H  0.21599593  0.98820875  0.74637883     0.16000
C633        C  0.48557381  0.76323440  0.50894669    -0.13600
C634        C  0.00913685  0.74499712  0.52135136    -0.28780
H635        H  0.49553774  0.79124843  0.50905822     0.15420
H636        H  0.98468209  0.72293605  0.99564417     0.16000
C637        C  0.23577972  0.76522218  0.51006191    -0.13600
C638        C  0.25913115  0.73745466  0.50320557    -0.28780
H639        H  0.23042734  0.81235765  0.00113265     0.15420
H640        H  0.24837438  0.71020262  0.49785475     0.16000
C641        C  0.99710903  0.51062597  0.76666667    -0.13600
C642        C  0.99453334  0.98700929  0.74899817    -0.28780
H643        H  0.99559436  0.50191264  0.79481447     0.15420
H644        H  0.52738876  0.00027510  0.72724773     0.16000
C645        C  0.99921338  0.73595813  0.73637215    -0.13600
C646        C  0.99787182  0.76022897  0.76432306    -0.28780
H647        H  0.99989091  0.74584878  0.70860170     0.15420
H648        H  0.46452567  0.75780470  0.79166520     0.16000
C649        C  0.25171718  0.60643124  0.64350079    -0.10440
C650        C  0.24064864  0.63303858  0.65951555    -0.12000
C651        C  0.14104105  0.74208197  0.62387169    -0.10440
C652        C  0.15536246  0.73090386  0.65088518    -0.12000
C653        C  0.13871103  0.64211251  0.74269539    -0.10440
C654        C  0.10930358  0.63028173  0.75163844    -0.12000
C655        C  0.24156580  0.84853197  0.84098899    -0.10440
C656        C  0.25532778  0.87476401  0.85548695    -0.12000
C657        C  0.10619945  0.86671793  0.75661970    -0.10440
C658        C  0.13477658  0.85289382  0.76489536    -0.12000
C659        C  0.14032630  0.76959598  0.86159757    -0.10440
C660        C  0.12469277  0.76408071  0.88978259    -0.12000
C661        C  0.43617530  0.86623169  0.68346214    -0.10440
C662        C  0.41002421  0.85207981  0.66978343    -0.12000
C663        C  0.28236023  0.85213504  0.63604152    -0.10440
C664        C  0.26743076  0.88023589  0.62841789    -0.12000
C665        C  0.36192313  0.72427775  0.61046069    -0.10440
C666        C  0.35214045  0.73870611  0.63825079    -0.12000
C667        C  0.31448743  0.75661660  0.86929139    -0.10440
C668        C  0.32610881  0.77394124  0.89458117    -0.12000
C669        C  0.25338119  0.63745796  0.86686017    -0.10440
C670        C  0.24203502  0.60729320  0.87283768    -0.12000
C671        C  0.38161960  0.64965950  0.83753010    -0.10440
C672        C  0.41104586  0.63916964  0.82793555    -0.12000
C673        C  0.84686839  0.19999964  0.32837396     0.05960
C674        C  0.82628112  0.17177980  0.34350926    -0.10190
C675        C  0.81496665  0.14245471  0.32193062     0.03460
C676        C  0.82229039  0.14192687  0.28458014    -0.08710
C677        C  0.84269421  0.17022257  0.26905749     0.05950
C678        C  0.85491327  0.19957183  0.29105612    -0.08130
H679        H  0.82173117  0.17108908  0.37273735     0.11550
H680        H  0.81563382  0.11773914  0.26850060     0.09080
H681        H  0.87362687  0.21973928  0.28005480     0.08920
C682        C  0.85340190  0.37164991  0.05636947     0.05960
C683        C  0.87757037  0.37691883  0.08532650    -0.10190
C684        C  0.86475250  0.37478662  0.12097793     0.03460
C685        C  0.82800155  0.36747317  0.12803428    -0.08710
C686        C  0.80339036  0.36317733  0.09922542     0.05950
C687        C  0.81610004  0.36506533  0.06319933    -0.08130
H688        H  0.90661450  0.38079841  0.08015760     0.11550
H689        H  0.81812042  0.36756675  0.15594739     0.09080
H690        H  0.79714582  0.36163052  0.04072355     0.08920
C691        C  0.65354100  0.35317907  0.37186610     0.05960
C692        C  0.65590153  0.31561225  0.36473448    -0.10190
C693        C  0.62397214  0.29419436  0.36507925     0.03460
C694        C  0.59003349  0.31053158  0.37236652    -0.08710
C695        C  0.58798257  0.34792450  0.38016702     0.05950
C696        C  0.61969489  0.36922654  0.37970349    -0.08170
H697        H  0.68244712  0.30292056  0.36075797     0.11550
H698        H  0.56531996  0.29396975  0.37285139     0.09080
H699        H  0.61784065  0.39857717  0.38396481     0.08920
C700        C  0.52998973  0.10983415  0.10728903     0.05960
C701        C  0.55227114  0.14102247  0.10883570    -0.10190
C702        C  0.58980333  0.13776087  0.11452080     0.03460
C703        C  0.60569907  0.10336031  0.11601709    -0.08710
C704        C  0.58392181  0.07197336  0.11295079     0.05950
C705        C  0.54587063  0.07496171  0.10910614    -0.08130
H706        H  0.54003626  0.16801789  0.10800499     0.11550
H707        H  0.63523134  0.10100570  0.11853317     0.09080
H708        H  0.52875644  0.05070598  0.10969778     0.08920
O709        O  0.00357321  0.19696999  0.22919987    -0.70110
O710        O  0.00605531  0.08728929  0.21323666    -0.71090
O711        O  0.95220005  0.14455193  0.20474755    -0.59710
O712        O  0.45990845  0.12912646  0.20717439    -0.68120
O713        O  0.51839801  0.13776431  0.19222792    -0.67680
O714        O  0.93633403  0.13618433  0.26260893    -0.58930
O715        O  0.54267395  0.08375494  0.24106858    -0.71440
O716        O  0.52909906  0.19331106  0.24659879    -0.70220
Cu717      Cu  0.00506801  0.14252693  0.21928486     1.04560
Cu718      Cu  0.53757827  0.13860143  0.24320483     1.04330
C719        C  0.49778897  0.20684282  0.25468529     0.96090
C720        C  0.51613347  0.06193798  0.24767184     0.95230
C721        C  0.92790370  0.14261093  0.22962652     0.87370
C722        C  0.48495516  0.13192569  0.18335396     0.93640
O723        O  0.68981887  0.21289069  0.49977215    -0.70110
O724        O  0.57944692  0.19757440  0.50736973    -0.71090
O725        O  0.63175855  0.20147830  0.44936381    -0.59710
O726        O  0.63657813  0.17581910  0.03156332    -0.68120
O727        O  0.63377918  0.23483844  0.04670197    -0.67680
O728        O  0.62274122  0.26159933  0.45037020    -0.58930
O729        O  0.57918714  0.24443986  0.99227581    -0.71440
O730        O  0.69157370  0.24578271  0.99513343    -0.70220
Cu731      Cu  0.63500933  0.20282219  0.50381204     1.04560
Cu732      Cu  0.63544987  0.24748903  0.99412950     1.04330
C733        C  0.70911956  0.21669964  0.98613707     0.96090
C734        C  0.56235648  0.21414274  0.98602667     0.95230
C735        C  0.62681809  0.23148785  0.43294750     0.87370
C736        C  0.63437727  0.20130972  0.05543751     0.93640
O737        O  0.73966479  0.01630333  0.17643285    -0.70110
O738        O  0.74677176  0.03112785  0.06644142    -0.71090
O739        O  0.68961736  0.03407326  0.12001728    -0.59710
O740        O  0.77646605  0.44804729  0.12082551    -0.68120
O741        O  0.71580629  0.44990825  0.12670535    -0.67680
O742        O  0.67631430  0.97507446  0.11274274    -0.58930
O743        O  0.71569369  0.50321639  0.07121940    -0.71440
O744        O  0.72658020  0.50540252  0.18172223    -0.70220
Cu745      Cu  0.74349082  0.02593668  0.12172652     1.04560
Cu746      Cu  0.71891836  0.50448826  0.12663661     1.04330
C747        C  0.75872675  0.50434892  0.19561373     0.96090
C748        C  0.74396591  0.50130310  0.05051019     0.95230
C749        C  0.66630318  0.00824913  0.11625992     0.87370
C750        C  0.74539207  0.43203540  0.12255668     0.93640
O751        O  0.53807994  0.44289941  0.24789925    -0.70110
O752        O  0.54477296  0.33211855  0.24710087    -0.71090
O753        O  0.97195980  0.39042553  0.19088856    -0.59710
O754        O  0.54842209  0.38830899  0.30079286    -0.68120
O755        O  0.48859522  0.38361050  0.31176808    -0.67680
O756        O  0.93060963  0.38175462  0.23465618    -0.58930
O757        O  0.97595929  0.32872364  0.26851793    -0.71440
O758        O  0.96449994  0.43903341  0.27501615    -0.70220
Cu759      Cu  0.54363249  0.38780536  0.24717938     1.04560
Cu760      Cu  0.96868707  0.38373317  0.27340252     1.04330
C761        C  0.50679508  0.45802352  0.25242833     0.96090
C762        C  0.51627266  0.31221306  0.25208352     0.95230
C763        C  0.93902980  0.38544730  0.20119545     0.87370
C764        C  0.52156350  0.38527231  0.32285226     0.93640
O765        O  0.78535350  0.48790816  0.42375928    -0.70110
O766        O  0.77252607  0.49362381  0.31392564    -0.71090
O767        O  0.78887228  0.01922952  0.35779132    -0.59710
O768        O  0.75727428  0.44024624  0.36818158    -0.68120
O769        O  0.70221553  0.46482201  0.37680343    -0.67680
O770        O  0.73848690  0.05117793  0.37028525    -0.58930
O771        O  0.70304492  0.00939350  0.31644235    -0.71440
O772        O  0.71756576  0.00180086  0.42665143    -0.70220
Cu773      Cu  0.78081009  0.48979300  0.36858706     1.04560
Cu774      Cu  0.70807795  0.00657763  0.37187423     1.04330
C775        C  0.76003312  0.49881082  0.44548662     0.96090
C776        C  0.74280700  0.50656166  0.30088790     0.95230
C777        C  0.77217051  0.04965384  0.36155256     0.87370
C778        C  0.72272476  0.43699151  0.37220916     0.93640
O779        O  0.82144186  0.26476276  0.49056579    -0.70110
O780        O  0.93247946  0.27783236  0.49120052    -0.71090
O781        O  0.87747814  0.26959416  0.43644148    -0.59710
O782        O  0.88626330  0.28645520  0.96674556    -0.68120
O783        O  0.89158312  0.28286485  0.02696996    -0.67680
O784        O  0.88533730  0.20945310  0.43939472    -0.58930
O785        O  0.94246070  0.22439033  0.02258255    -0.71440
O786        O  0.83200943  0.23392796  0.02912772    -0.70220
Cu787      Cu  0.87672539  0.27378202  0.49066970     1.04560
Cu788      Cu  0.88727350  0.22875058  0.02777863     1.04330
C789        C  0.81275073  0.23510736  0.00013529     0.96090
C790        C  0.95841303  0.22535875  0.99152128     0.95230
C791        C  0.88080152  0.23848731  0.42093258     0.87370
C792        C  0.88836129  0.30156741  0.99801677     0.93640
C793        C  0.73889360  0.50051372  0.01012750    -0.13600
C794        C  0.76627190  0.49672111  0.48564855    -0.28780
H795        H  0.76195996  0.03133744  0.99466750     0.15420
H796        H  0.79396150  0.49109189  0.49474673     0.16000
C797        C  0.73703916  0.50860450  0.26062908    -0.13600
C798        C  0.76419475  0.50349859  0.23595840    -0.28780
H799        H  0.70751448  0.02422301  0.24552906     0.15420
H800        H  0.79180270  0.49845487  0.24563655     0.16000
C801        C  0.99888812  0.22135761  0.98877458    -0.13600
C802        C  0.52132685  0.21148105  0.98710698    -0.28780
H803        H  0.01012555  0.20874227  0.96426803     0.15420
H804        H  0.50748696  0.19120622  0.50947916     0.16000
C805        C  0.74978684  0.21646794  0.98292928    -0.13600
C806        C  0.77218043  0.23762136  0.00329614    -0.28780
H807        H  0.75182960  0.28090304  0.49520509     0.15420
H808        H  0.76065497  0.25497242  0.02460155     0.16000
C809        C  0.52351392  0.02195582  0.24676994    -0.13600
C810        C  0.50290888  0.49839771  0.25050704    -0.28780
H811        H  0.55193509  0.01347463  0.24436644     0.15420
H812        H  0.95350786  0.51068374  0.26614946     0.16000
C813        C  0.49261312  0.24745683  0.25654234    -0.13600
C814        C  0.52034767  0.27150956  0.25109918    -0.28780
H815        H  0.46531639  0.25773514  0.26241912     0.15420
H816        H  0.01502065  0.26470192  0.21563790     0.16000
C817        C  0.62850488  0.01786658  0.11535912    -0.10440
C818        C  0.60233416  0.03758435  0.11425495    -0.12000
C819        C  0.62786770  0.19062244  0.09178308    -0.10440
C820        C  0.61256195  0.16918579  0.11081878    -0.12000
C821        C  0.49294293  0.11504064  0.11864668    -0.10440
C822        C  0.47753053  0.12452780  0.14595038    -0.12000
C823        C  0.68517940  0.37629425  0.37114555    -0.10440
C824        C  0.70594141  0.40178320  0.37135143    -0.12000
C825        C  0.53047002  0.37908993  0.35982212    -0.10440
C826        C  0.55327025  0.36570882  0.37875293    -0.12000
C827        C  0.62678043  0.25571862  0.37055378    -0.10440
C828        C  0.62711147  0.23360200  0.39430718    -0.12000
C829        C  0.91128154  0.38319050  0.17443593    -0.10440
C830        C  0.88948154  0.37986907  0.15042773    -0.12000
C831        C  0.76560216  0.36946391  0.10731815    -0.10440
C832        C  0.74542530  0.39351013  0.11684677    -0.12000
C833        C  0.88192507  0.33958474  0.00244708    -0.10440
C834        C  0.86872642  0.36268399  0.02164624    -0.12000
C835        C  0.86489931  0.22426365  0.35348133    -0.10440
C836        C  0.87590811  0.23519567  0.38244786    -0.12000
C837        C  0.80130004  0.11044546  0.33918851    -0.10440
C838        C  0.79006382  0.08271073  0.35218369    -0.12000
C839        C  0.86255322  0.16206790  0.23630529    -0.10440
C840        C  0.89062364  0.15150278  0.22285443    -0.12000
C841        C  0.83358454  0.10873360  0.92756518     0.05960
C842        C  0.79691512  0.11895299  0.92299854    -0.10190
C843        C  0.78436675  0.13000925  0.88870611     0.03460
C844        C  0.80882804  0.13172000  0.85930667    -0.08710
C845        C  0.84535144  0.12162102  0.86393025     0.05950
C846        C  0.85767846  0.11009851  0.89792297    -0.08130
H847        H  0.77802055  0.11745783  0.94578890     0.11550
H848        H  0.79896127  0.13862455  0.83241783     0.09080
H849        H  0.88642414  0.10367512  0.90168152     0.08920
C850        C  0.83702100  0.28502542  0.65457484     0.05960
C851        C  0.85427866  0.29580629  0.68695239    -0.10190
C852        C  0.84159555  0.32647431  0.70645064     0.03460
C853        C  0.81114346  0.34565405  0.69403337    -0.08710
C854        C  0.79403739  0.33508997  0.66147437     0.05950
C855        C  0.80655472  0.30445018  0.64210244    -0.08130
H856        H  0.87958760  0.28269085  0.69495282     0.11550
H857        H  0.80328872  0.37101761  0.70751090     0.09080
H858        H  0.79503451  0.29802367  0.61556939     0.08920
C859        C  0.71914235  0.33685826  0.83707873     0.05960
C860        C  0.70911422  0.30189029  0.84843572    -0.10190
C861        C  0.67633062  0.28618538  0.83584028     0.03460
C862        C  0.65411143  0.30517224  0.81169800    -0.08710
C863        C  0.66400185  0.34031356  0.80077928     0.05950
C864        C  0.69674574  0.35587104  0.81286298    -0.08170
H865        H  0.72476113  0.28857180  0.86954179     0.11550
H866        H  0.62745646  0.29415969  0.80432998     0.09080
H867        H  0.70309119  0.38400348  0.80612000     0.08920
C868        C  0.67109459  0.16462541  0.71524287     0.05960
C869        C  0.66074539  0.19690228  0.69788199    -0.10190
C870        C  0.67766178  0.20686584  0.66528876     0.03460
C871        C  0.70608419  0.18556163  0.65082529    -0.08710
C872        C  0.71605606  0.15314468  0.66769827     0.05950
C873        C  0.69903754  0.14295656  0.70034531    -0.08130
H874        H  0.63673112  0.21172887  0.70726596     0.11550
H875        H  0.71704069  0.19164949  0.62404459     0.09080
H876        H  0.70457487  0.11633483  0.71179343     0.08920
O877        O  0.98450342  0.17471761  0.73598260    -0.70110
O878        O  0.98805573  0.06510437  0.74491074    -0.71090
O879        O  0.93512685  0.12003817  0.76213165    -0.59710
O880        O  0.56090217  0.12521609  0.72753202    -0.68120
O881        O  0.56290059  0.13509939  0.78736241    -0.67680
O882        O  0.95924881  0.12697528  0.81733526    -0.58930
O883        O  0.50681452  0.08023486  0.79631112    -0.71440
O884        O  0.50827732  0.18957061  0.77992524    -0.70220
Cu885      Cu  0.98539281  0.11980115  0.73899997     1.04560
Cu886      Cu  0.50789002  0.13525306  0.79013870     1.04330
C887        C  0.50739590  0.20188305  0.74745163     0.96090
C888        C  0.50594750  0.05783861  0.76929640     0.95230
C889        C  0.93154261  0.12356627  0.79661660     0.87370
C890        C  0.57895167  0.13149861  0.75663820     0.93640
O891        O  0.69166234  0.18732992  0.97830427    -0.70110
O892        O  0.58082106  0.18515451  0.97925519    -0.71090
O893        O  0.63716004  0.19696048  0.92594980    -0.59710
O894        O  0.63854306  0.20815124  0.55790731    -0.68120
O895        O  0.63024123  0.26836752  0.55800112    -0.67680
O896        O  0.63772001  0.25612916  0.94074286    -0.58930
O897        O  0.57120446  0.25760314  0.50777243    -0.71440
O898        O  0.68078781  0.27282069  0.49968710    -0.70220
Cu899      Cu  0.63648462  0.18429674  0.97844091     1.04560
Cu900      Cu  0.62578460  0.26710476  0.50388503     1.04330
C901        C  0.70258322  0.24553644  0.49834804     0.96090
C902        C  0.55792781  0.22520000  0.50828062     0.95230
C903        C  0.63950347  0.23039364  0.91705570     0.87370
C904        C  0.63685240  0.23884740  0.57473119     0.93640
O905        O  0.78145271  0.99059920  0.66905523    -0.70110
O906        O  0.76781245  0.98885519  0.55816211    -0.71090
O907        O  0.77406416  0.04435084  0.61469126    -0.59710
O908        O  0.78638603  0.44619773  0.61970877    -0.68120
O909        O  0.72598201  0.44351024  0.62740914    -0.67680
O910        O  0.71362935  0.04195818  0.62237146    -0.58930
O911        O  0.71811960  0.49831950  0.57242103    -0.71440
O912        O  0.73176389  0.49805899  0.68233284    -0.70220
Cu913      Cu  0.77697577  0.98973684  0.61348427     1.04560
Cu914      Cu  0.72289806  0.49817638  0.62759393     1.04330
C915        C  0.76414369  0.49914253  0.69567447     0.96090
C916        C  0.74579958  0.49943404  0.55094953     0.95230
C917        C  0.74353036  0.06003671  0.62096771     0.87370
C918        C  0.75706831  0.42788304  0.62495239     0.93640
O919        O  0.50313028  0.43145236  0.71929550    -0.70110
O920        O  0.50820312  0.32089451  0.73073964    -0.71090
O921        O  0.95107921  0.36443561  0.72402307    -0.59710
O922        O  0.55957949  0.37921765  0.73392456    -0.68120
O923        O  0.54850603  0.38570007  0.79324746    -0.67680
O924        O  0.94221178  0.37416222  0.78328947    -0.58930
O925        O  0.99910094  0.32424681  0.79907688    -0.71440
O926        O  0.99488627  0.43305773  0.77975068    -0.70220
Cu927      Cu  0.50619894  0.37595026  0.72279782     1.04560
Cu928      Cu  0.99661739  0.37891268  0.79131071     1.04330
C929        C  0.49704073  0.45192662  0.74719012     0.96090
C930        C  0.50323278  0.30714074  0.76231897     0.95230
C931        C  0.92990305  0.36653988  0.75158854     0.87370
C932        C  0.57080643  0.38189237  0.76665680     0.93640
O933        O  0.79050978  0.49900759  0.92509919    -0.70110
O934        O  0.78029692  0.49418130  0.81463941    -0.71090
O935        O  0.75447437  0.04909871  0.86520051    -0.59710
O936        O  0.78916059  0.44189278  0.87118492    -0.68120
O937        O  0.72870115  0.43986439  0.87875246    -0.67680
O938        O  0.69360339  0.04662445  0.86716656    -0.58930
O939        O  0.70038434  0.99214954  0.81129643    -0.71440
O940        O  0.69737659  0.99108370  0.92084056    -0.70220
Cu941      Cu  0.78762976  0.49653543  0.86971741     1.04560
Cu942      Cu  0.69703024  0.99182254  0.86592249     1.04330
C943        C  0.76210981  0.49901125  0.94569495     0.96090
C944        C  0.74821952  0.49225698  0.80062242     0.95230
C945        C  0.72338632  0.06484643  0.86703071     0.87370
C946        C  0.75945206  0.42386182  0.87448059     0.93640
O947        O  0.82835558  0.23432964  0.96881627    -0.70110
O948        O  0.93953224  0.22893298  0.96245194    -0.71090
O949        O  0.88097832  0.17873985  0.96345466    -0.59710
O950        O  0.87549328  0.27441881  0.54476827    -0.68120
O951        O  0.88199467  0.21418928  0.54880654    -0.67680
O952        O  0.88118291  0.17404974  0.02380458    -0.58930
O953        O  0.93931588  0.21779049  0.49493352    -0.71440
O954        O  0.82942479  0.20476437  0.49310845    -0.70220
Cu955      Cu  0.88398805  0.23218427  0.96328826     1.04560
Cu956      Cu  0.88450330  0.20947919  0.49409481     1.04330
C957        C  0.80807194  0.23235021  0.49212148     0.96090
C958        C  0.95334317  0.24979285  0.49306644     0.95230
C959        C  0.87785447  0.15975664  0.99213299     0.87370
C960        C  0.87665994  0.24545568  0.56365949     0.93640
C961        C  0.73939943  0.50076537  0.51076827    -0.13600
C962        C  0.76705432  0.50036415  0.98609177    -0.28780
H963        H  0.70028637  0.99528222  0.49642349     0.15420
H964        H  0.79495448  0.50099912  0.99631538     0.16000
C965        C  0.74280064  0.49250844  0.76027377    -0.13600
C966        C  0.77014445  0.49786905  0.73593966    -0.28780
H967        H  0.70159406  0.99039521  0.74169004     0.15420
H968        H  0.79801187  0.50125568  0.74575544     0.16000
C969        C  0.99393200  0.25478873  0.49284609    -0.13600
C970        C  0.51743935  0.21921670  0.50926970    -0.28780
H971        H  0.00452356  0.28254355  0.49191553     0.15420
H972        H  0.50921174  0.18442576  0.98444864     0.16000
C973        C  0.74271559  0.25260694  0.49535216    -0.13600
C974        C  0.76780432  0.22569576  0.49339824    -0.28780
H975        H  0.76186716  0.19662318  0.96421606     0.15420
H976        H  0.75861614  0.19742437  0.49374753     0.16000
C977        C  0.50329018  0.01790276  0.77649087    -0.13600
C978        C  0.49546053  0.49242165  0.74304205    -0.28780
H979        H  0.49264567  0.00961191  0.80280233     0.15420
H980        H  0.00090941  0.49352672  0.71177170     0.16000
C981        C  0.50722062  0.24200906  0.74084108    -0.13600
C982        C  0.50450450  0.26695122  0.76807516    -0.28780
H983        H  0.50862094  0.25116124  0.71283553     0.15420
H984        H  0.00749432  0.25322737  0.80854432     0.16000
C985        C  0.74263634  0.09780461  0.63101423    -0.10440
C986        C  0.73492356  0.12574211  0.64672946    -0.12000
C987        C  0.64552754  0.23966135  0.61255197    -0.10440
C988        C  0.65906804  0.23051844  0.64074879    -0.12000
C989        C  0.64582197  0.14902343  0.74076320    -0.10440
C990        C  0.61741768  0.13809268  0.75331552    -0.12000
C991        C  0.74639675  0.35761678  0.85625682    -0.10440
C992        C  0.75901358  0.38526161  0.86894843    -0.12000
C993        C  0.60859909  0.37601427  0.77417810    -0.10440
C994        C  0.63682715  0.36249989  0.78384500    -0.12000
C995        C  0.66062978  0.25666843  0.85569467    -0.10440
C996        C  0.64792748  0.23991418  0.88058071    -0.12000
C997        C  0.89233093  0.35706768  0.74618673    -0.10440
C998        C  0.86557352  0.34357709  0.73247088    -0.12000
C999        C  0.77118981  0.36129239  0.64382047    -0.10440
C1000       C  0.76026849  0.38968833  0.63185898    -0.12000
C1001       C  0.86849442  0.24887670  0.60164334    -0.10440
C1002       C  0.85540400  0.26093431  0.62937858    -0.12000
C1003       C  0.84892795  0.10656000  0.96344191    -0.10440
C1004       C  0.86541637  0.12323176  0.98652360    -0.12000
C1005       C  0.74614358  0.12644717  0.88070466    -0.10440
C1006       C  0.72422066  0.10348089  0.87211641    -0.12000
C1007       C  0.87071064  0.12291026  0.83410302    -0.10440
C1008       C  0.89623027  0.12337145  0.81337258    -0.12000
C1009       C  0.87132352  0.71648892  0.37129182     0.05960
C1010       C  0.84085826  0.69299885  0.37127592    -0.10190
C1011       C  0.84620919  0.65522669  0.37400295     0.03460
C1012       C  0.88157308  0.64110616  0.37742355    -0.08710
C1013       C  0.91165463  0.66465109  0.37791345     0.05950
C1014       C  0.90660352  0.70209169  0.37393426    -0.08130
H1015       H  0.81333760  0.70407893  0.37119926     0.11550
H1016       H  0.88573531  0.61178829  0.37872000     0.09080
H1017       H  0.93017129  0.72027476  0.37451991     0.08920
C1018       C  0.89837015  0.85643004  0.11225004     0.05960
C1019       C  0.93597572  0.85839790  0.10567847    -0.10190
C1020       C  0.95325652  0.89244863  0.10256455     0.03460
C1021       C  0.93251209  0.92461941  0.10456384    -0.08710
C1022       C  0.89470850  0.92230122  0.11025355     0.05950
C1023       C  0.87772270  0.88829435  0.11415823    -0.08130
H1024       H  0.95206659  0.83350052  0.10473749     0.11550
H1025       H  0.94590688  0.95110984  0.10407681     0.09080
H1026       H  0.84822578  0.88658659  0.11770759     0.08920
C1027       C  0.61915385  0.85003834  0.36905428     0.05960
C1028       C  0.62364115  0.81299146  0.36112695    -0.10190
C1029       C  0.59358894  0.78925126  0.36303888     0.03460
C1030       C  0.55869041  0.80304524  0.37136002    -0.08710
C1031       C  0.55417217  0.84033488  0.37905761     0.05950
C1032       C  0.58458107  0.86372794  0.37813475    -0.08170
H1033       H  0.65093388  0.80220379  0.35640601     0.11550
H1034       H  0.53534542  0.78469804  0.37277335     0.09080
H1035       H  0.58102704  0.89286354  0.38271802     0.08920
C1036       C  0.63493412  0.63018250  0.10390286     0.05960
C1037       C  0.62262894  0.62299979  0.06864098    -0.10190
C1038       C  0.64734773  0.62346716  0.03940546     0.03460
C1039       C  0.68480777  0.62971544  0.04599099    -0.08710
C1040       C  0.69695046  0.63642340  0.08174112     0.05950
C1041       C  0.67177750  0.63726255  0.11040173    -0.08130
H1042       H  0.59352062  0.61950097  0.06367546     0.11550
H1043       H  0.70419414  0.62967708  0.02357365     0.09080
H1044       H  0.68122222  0.64127209  0.13818442     0.08920
O1045       O  0.96494940  0.68838651  0.23797412    -0.70110
O1046       O  0.97231451  0.57782468  0.24413345    -0.71090
O1047       O  0.95801418  0.63538162  0.29346290    -0.59710
O1048       O  0.53207687  0.62932650  0.18517844    -0.68120
O1049       O  0.57966558  0.63687400  0.22230595    -0.67680
O1050       O  0.01698699  0.64063984  0.30798840    -0.58930
O1051       O  0.54990931  0.58289292  0.26888504    -0.71440
O1052       O  0.54185559  0.69325222  0.26135905    -0.70220
Cu1053     Cu  0.96648654  0.63265245  0.24044467     1.04560
Cu1054     Cu  0.54744939  0.63819493  0.26645378     1.04330
C1055       C  0.51666928  0.70695683  0.24156985     0.96090
C1056       C  0.52738512  0.56194520  0.25195143     0.95230
C1057       C  0.98339807  0.63846343  0.31708020     0.87370
C1058       C  0.56635827  0.63265378  0.19042933     0.93640
O1059       O  0.68233353  0.72777668  0.50331579    -0.70110
O1060       O  0.57193333  0.71387604  0.51227617    -0.71090
O1061       O  0.62308351  0.71051884  0.45441513    -0.59710
O1062       O  0.60703258  0.71146001  0.96375830    -0.68120
O1063       O  0.60349034  0.70187328  0.02338413    -0.67680
O1064       O  0.61398732  0.77027897  0.44865683    -0.58930
O1065       O  0.54997523  0.75676193  0.03428851    -0.71440
O1066       O  0.66103176  0.75152195  0.03617933    -0.70220
Cu1067     Cu  0.62746866  0.71831350  0.50799636     1.04560
Cu1068     Cu  0.60535563  0.75415136  0.03748687     1.04330
C1069       C  0.67949403  0.75687758  0.00701665     0.96090
C1070       C  0.53292717  0.76203097  0.00439342     0.95230
C1071       C  0.61635417  0.73810663  0.43488453     0.87370
C1072       C  0.60697081  0.68994990  0.99077221     0.93640
O1073       O  0.78690241  0.50327314  0.17474737    -0.70110
O1074       O  0.77601173  0.50003039  0.06455232    -0.71090
O1075       O  0.78638241  0.55599049  0.11690864    -0.59710
O1076       O  0.79680248  0.01376709  0.12255607    -0.68120
O1077       O  0.78375923  0.95546660  0.11033719    -0.67680
O1078       O  0.72593880  0.55824306  0.12475071    -0.58930
O1079       O  0.73087307  0.97326090  0.05692007    -0.71440
O1080       O  0.73009803  0.95715290  0.16640777    -0.70220
Cu1081     Cu  0.78356652  0.50162376  0.11942376     1.04560
Cu1082     Cu  0.72981980  0.96319269  0.11133859     1.04330
C1083       C  0.73455958  0.98400174  0.18866397     0.96090
C1084       C  0.73996076  0.00455703  0.04440734     0.95230
C1085       C  0.75653006  0.57381260  0.11795461     0.87370
C1086       C  0.80693019  0.98107153  0.11598792     0.93640
O1087       O  0.53793201  0.94465321  0.25313440    -0.70110
O1088       O  0.55545797  0.83484228  0.25786639    -0.71090
O1089       O  0.03826730  0.89184003  0.19529791    -0.59710
O1090       O  0.53386176  0.89059369  0.30760144    -0.68120
O1091       O  0.47545041  0.87683744  0.29676900    -0.67680
O1092       O  0.97777739  0.88502237  0.19154119    -0.58930
O1093       O  0.97775096  0.82837156  0.24436927    -0.71440
O1094       O  0.96346840  0.93843142  0.24684197    -0.70220
Cu1095     Cu  0.54907940  0.89030981  0.25592866     1.04560
Cu1096     Cu  0.96877044  0.88333361  0.24510729     1.04330
C1097       C  0.50522461  0.95634794  0.24849060     0.96090
C1098       C  0.52916906  0.81246655  0.25104302     0.95230
C1099       C  0.00919927  0.88915223  0.17657617     0.87370
C1100       C  0.50187541  0.88208882  0.31880152     0.93640
O1101       O  0.76903912  0.97140217  0.41623674    -0.70110
O1102       O  0.75168098  0.97440539  0.30672224    -0.71090
O1103       O  0.80038978  0.54070271  0.36946958    -0.59710
O1104       O  0.73049532  0.92653578  0.36422839    -0.68120
O1105       O  0.68028731  0.96004233  0.37214097    -0.67680
O1106       O  0.74529621  0.56516475  0.37818343    -0.58930
O1107       O  0.71739156  0.51755588  0.32249813    -0.71440
O1108       O  0.73019442  0.51169622  0.43261166    -0.70220
Cu1109     Cu  0.76182385  0.97163697  0.36114216     1.04560
Cu1110     Cu  0.72182977  0.51563960  0.37781330     1.04330
C1111       C  0.74618572  0.98572592  0.43873287     0.96090
C1112       C  0.72542533  0.99371352  0.29429658     0.95230
C1113       C  0.77980153  0.56851058  0.37389869     0.87370
C1114       C  0.69587088  0.92915709  0.36842879     0.93640
O1115       O  0.81258655  0.78105752  0.51666855    -0.70110
O1116       O  0.92335369  0.79566056  0.52507756    -0.71090
O1117       O  0.86983231  0.79823804  0.46799176    -0.59710
O1118       O  0.85611768  0.81248319  0.03046620    -0.68120
O1119       O  0.85953224  0.75371635  0.04505470    -0.67680
O1120       O  0.87847580  0.73839134  0.46084178    -0.58930
O1121       O  0.91379479  0.74345941  0.99004163    -0.71440
O1122       O  0.80089918  0.74218537  0.99425358    -0.70220
Cu1123     Cu  0.86752053  0.79096192  0.52159593     1.04560
Cu1124     Cu  0.85731922  0.74032489  0.99225736     1.04330
C1125       C  0.78322510  0.77127474  0.98616157     0.96090
C1126       C  0.93019773  0.77397958  0.98431606     0.95230
C1127       C  0.87343856  0.77016159  0.44764261     0.87370
C1128       C  0.85905906  0.78740052  0.05406984     0.93640
C1129       C  0.74363412  0.01003893  0.00424966    -0.13600
C1130       C  0.75388347  0.98379919  0.47881708    -0.28780
H1131       H  0.71098161  0.50013048  0.99993409     0.15420
H1132       H  0.78142075  0.97640095  0.48704412     0.16000
C1133       C  0.72181028  0.99984011  0.25421682    -0.13600
C1134       C  0.73553321  0.97674976  0.22864351    -0.28780
H1135       H  0.70963673  0.51484382  0.25110081     0.15420
H1136       H  0.74725729  0.95099302  0.23720431     0.16000
C1137       C  0.97107993  0.77790928  0.98584017    -0.13600
C1138       C  0.49212850  0.76074776  0.00462764    -0.28780
H1139       H  0.98191612  0.80527704  0.98189130     0.15420
H1140       H  0.50008387  0.70762258  0.51139495     0.16000
C1141       C  0.72033800  0.75397371  0.00807912    -0.13600
C1142       C  0.74235636  0.77206261  0.98481257    -0.28780
H1143       H  0.74458111  0.79547659  0.49750463     0.15420
H1144       H  0.72995718  0.79044077  0.96537451     0.16000
C1145       C  0.53127035  0.52167568  0.25511861    -0.13600
C1146       C  0.49711770  0.99621915  0.24851608    -0.28780
H1147       H  0.55796045  0.51101222  0.26248223     0.15420
H1148       H  0.96178144  0.00892476  0.26928874     0.16000
C1149       C  0.51164373  0.74733678  0.23928173    -0.13600
C1150       C  0.53577579  0.77223236  0.25256944    -0.28780
H1151       H  0.48694582  0.75687383  0.22599927     0.15420
H1152       H  0.04325392  0.76441547  0.25235654     0.16000
C1153       C  0.75491312  0.61062064  0.10599212    -0.10440
C1154       C  0.73450378  0.63152333  0.09152852    -0.12000
C1155       C  0.61666513  0.65242561  0.98677985    -0.10440
C1156       C  0.63229350  0.62958694  0.00398829    -0.12000
C1157       C  0.60993796  0.63067769  0.13377828    -0.10440
C1158       C  0.59015723  0.63156352  0.15981545    -0.12000
C1159       C  0.65002868  0.87417399  0.36856183    -0.10440
C1160       C  0.67337359  0.89731793  0.36854011    -0.12000
C1161       C  0.49910353  0.87211162  0.35602140    -0.10440
C1162       C  0.51846035  0.85634742  0.37692177    -0.12000
C1163       C  0.60109840  0.75199598  0.37105876    -0.10440
C1164       C  0.60988456  0.73442614  0.39684192    -0.12000
C1165       C  0.01015153  0.89207826  0.13804747    -0.10440
C1166       C  0.99110027  0.89403714  0.11174644    -0.12000
C1167       C  0.87208934  0.95397987  0.11270473    -0.10440
C1168       C  0.84476463  0.97194746  0.11479605    -0.12000
C1169       C  0.86623433  0.79890731  0.09030931    -0.10440
C1170       C  0.87999612  0.82211253  0.10894618    -0.12000
C1171       C  0.86721810  0.75373840  0.38232052    -0.10440
C1172       C  0.86960054  0.77233424  0.40921480    -0.12000
C1173       C  0.81608415  0.63013828  0.37401280    -0.10440
C1174       C  0.79632116  0.60386178  0.37410707    -0.12000
C1175       C  0.94765621  0.65031449  0.37378297    -0.10440
C1176       C  0.97217718  0.64187654  0.35386963    -0.12000
C1177       C  0.82002566  0.70819332  0.82518559     0.05960
C1178       C  0.78907218  0.68896381  0.83684581    -0.10190
C1179       C  0.77978728  0.65578009  0.82020381     0.03460
C1180       C  0.80042820  0.64259087  0.79059327    -0.08710
C1181       C  0.83111239  0.66211578  0.77862772     0.05950
C1182       C  0.84051136  0.69532059  0.79557636    -0.08130
H1183       H  0.77512007  0.69736662  0.86170469     0.11550
H1184       H  0.79526450  0.61531544  0.77982118     0.09080
H1185       H  0.86610910  0.70875347  0.78862972     0.08920
C1186       C  0.82393636  0.77952623  0.67620648     0.05960
C1187       C  0.84193452  0.79487973  0.70628058    -0.10190
C1188       C  0.83130654  0.82919738  0.71994556     0.03460
C1189       C  0.80187499  0.84755381  0.70406194    -0.08710
C1190       C  0.78354438  0.83194778  0.67410154     0.05950
C1191       C  0.79400406  0.79759149  0.66086153    -0.08130
H1192       H  0.86691910  0.78237746  0.71606724     0.11550
H1193       H  0.79578827  0.87541315  0.71248072     0.09080
H1194       H  0.78201610  0.78718966  0.63576264     0.08920
C1195       C  0.68051915  0.87111201  0.92097195     0.05960
C1196       C  0.67554200  0.88278529  0.95720113    -0.10190
C1197       C  0.64091127  0.89506776  0.96898769     0.03460
C1198       C  0.61210724  0.89734357  0.94394374    -0.08710
C1199       C  0.61735269  0.88549973  0.90808150     0.05950
C1200       C  0.65111047  0.87189453  0.89684537    -0.08170
H1201       H  0.69810557  0.88137766  0.97626555     0.11550
H1202       H  0.58496709  0.90543616  0.95301549     0.09080
H1203       H  0.65517686  0.86411009  0.86848902     0.08920
C1204       C  0.64971913  0.66147534  0.67784354     0.05960
C1205       C  0.64577177  0.69865039  0.67130966    -0.10190
C1206       C  0.67300197  0.71752884  0.65245148     0.03460
C1207       C  0.70492696  0.69904619  0.64090439    -0.08710
C1208       C  0.70896041  0.66177050  0.64876131     0.05950
C1209       C  0.68130592  0.64325149  0.66738034    -0.08130
H1210       H  0.62010434  0.71209438  0.67806023     0.11550
H1211       H  0.72487051  0.71266538  0.62379978     0.09080
H1212       H  0.68353616  0.61409317  0.67210754     0.08920
O1213       O  0.99985903  0.67403746  0.71425607    -0.70110
O1214       O  0.99825491  0.56367366  0.72783956    -0.71090
O1215       O  0.94415861  0.61992190  0.71926785    -0.59710
O1216       O  0.52989242  0.62702921  0.71219617    -0.68120
O1217       O  0.56364891  0.62509953  0.76256837    -0.67680
O1218       O  0.94380502  0.62820705  0.77935771    -0.58930
O1219       O  0.51541622  0.57394034  0.79472569    -0.71440
O1220       O  0.52318199  0.68417520  0.79186110    -0.70220
Cu1221     Cu  0.99913480  0.61860803  0.71888671     1.04560
Cu1222     Cu  0.52032344  0.62887180  0.79503735     1.04330
C1223       C  0.50682255  0.70186917  0.76688907     0.96090
C1224       C  0.49918788  0.55594574  0.76941933     0.95230
C1225       C  0.92694150  0.62553135  0.74905647     0.87370
C1226       C  0.56081968  0.62605343  0.72804268     0.93640
O1227       O  0.66283384  0.76408584  0.97726477    -0.70110
O1228       O  0.55092323  0.76650335  0.97477097    -0.71090
O1229       O  0.60794916  0.81757403  0.98827236    -0.59710
O1230       O  0.63197085  0.72940370  0.56055371    -0.68120
O1231       O  0.62540467  0.78955279  0.55509950    -0.67680
O1232       O  0.60845911  0.80800296  0.04796670    -0.58930
O1233       O  0.56408268  0.77368700  0.50729763    -0.71440
O1234       O  0.67357641  0.78723481  0.49604699    -0.70220
Cu1235     Cu  0.60693238  0.76543604  0.97393370     1.04560
Cu1236     Cu  0.61878986  0.78225110  0.50137796     1.04330
C1237       C  0.69526013  0.76015244  0.49948576     0.96090
C1238       C  0.55057400  0.74153280  0.51040720     0.95230
C1239       C  0.61017007  0.82948534  0.02100924     0.87370
C1240       C  0.63289504  0.76163492  0.57407771     0.93640
O1241       O  0.79191743  0.50119498  0.67434566    -0.70110
O1242       O  0.77828728  0.50006284  0.56411116    -0.71090
O1243       O  0.78443712  0.55566209  0.61931052    -0.59710
O1244       O  0.77622602  0.93524281  0.61488909    -0.68120
O1245       O  0.71585024  0.93282891  0.62294930    -0.67680
O1246       O  0.72417978  0.55282217  0.62786968    -0.58930
O1247       O  0.70770758  0.98704494  0.56670466    -0.71440
O1248       O  0.72115898  0.98853530  0.67621699    -0.70220
Cu1249     Cu  0.78734418  0.50080415  0.61895662     1.04560
Cu1250     Cu  0.71249813  0.98749148  0.62184488     1.04330
C1251       C  0.75330664  0.98995321  0.69001621     0.96090
C1252       C  0.73523915  0.98816571  0.54506564     0.95230
C1253       C  0.75361544  0.57134371  0.62394223     0.87370
C1254       C  0.74707237  0.91730095  0.62188090     0.93640
O1255       O  0.53215649  0.92984212  0.74290584    -0.70110
O1256       O  0.52252167  0.82024263  0.75708270    -0.71090
O1257       O  0.94196673  0.86943127  0.72496590    -0.59710
O1258       O  0.55930192  0.87885382  0.79457262    -0.68120
O1259       O  0.51023306  0.88660240  0.82989474    -0.67680
O1260       O  0.93989619  0.87403444  0.78535871    -0.58930
O1261       O  0.99603221  0.82071866  0.78872919    -0.71440
O1262       O  0.99454981  0.93106847  0.78300444    -0.70220
Cu1263     Cu  0.52923017  0.87484840  0.74915946     1.04560
Cu1264     Cu  0.99510807  0.87593079  0.78771311     1.04330
C1265       C  0.51048792  0.95207927  0.75925733     0.96090
C1266       C  0.49542330  0.80755824  0.77527986     0.95230
C1267       C  0.92388560  0.86986163  0.75471073     0.87370
C1268       C  0.54470521  0.88366535  0.82589701     0.93640
O1269       O  0.75767239  0.99846462  0.92336055    -0.70110
O1270       O  0.76114777  0.99283137  0.81134832    -0.71090
O1271       O  0.78193406  0.55052153  0.86745688    -0.59710
O1272       O  0.76559569  0.94171890  0.87071986    -0.68120
O1273       O  0.70492270  0.93810663  0.86588046    -0.67680
O1274       O  0.72122813  0.54830540  0.87284042    -0.58930
O1275       O  0.71999388  0.49067626  0.82136407    -0.71440
O1276       O  0.73010505  0.49756841  0.93152740    -0.70220
Cu1277     Cu  0.76192410  0.99586474  0.86737333     1.04560
Cu1278     Cu  0.72295113  0.49391468  0.87662307     1.04330
C1279       C  0.72671854  0.99424251  0.93952194     0.96090
C1280       C  0.73072819  0.99207361  0.79387867     0.95230
C1281       C  0.75071328  0.56608902  0.86719021     0.87370
C1282       C  0.73605683  0.92324690  0.87129440     0.93640
O1283       O  0.80068249  0.80033693  0.97784202    -0.70110
O1284       O  0.91135525  0.80257986  0.97777153    -0.71090
O1285       O  0.85539821  0.79012668  0.92478829    -0.59710
O1286       O  0.86445212  0.78023852  0.57455212    -0.68120
O1287       O  0.87298438  0.72038493  0.56762860    -0.67680
O1288       O  0.85491437  0.73103127  0.93839083    -0.58930
O1289       O  0.93121618  0.73597102  0.51764688    -0.71440
O1290       O  0.82200719  0.72147079  0.50988849    -0.70220
Cu1291     Cu  0.85588742  0.80330622  0.97735872     1.04560
Cu1292     Cu  0.87672287  0.72706891  0.51365086     1.04330
C1293       C  0.80010419  0.74859043  0.51146234     0.96090
C1294       C  0.94471783  0.76796202  0.52232231     0.95230
C1295       C  0.85364790  0.75668298  0.91511704     0.87370
C1296       C  0.86630373  0.74819814  0.58775444     0.93640
C1297       C  0.72819653  0.98966332  0.50485597    -0.13600
C1298       C  0.72398531  0.99037476  0.97984294    -0.28780
H1299       H  0.71146380  0.50499484  0.50162670     0.15420
H1300       H  0.70341157  0.97142161  0.98986764     0.16000
C1301       C  0.72894045  0.99104742  0.75331651    -0.13600
C1302       C  0.75802939  0.99092369  0.73048345    -0.28780
H1303       H  0.71496086  0.48913032  0.75036931     0.15420
H1304       H  0.78559246  0.99167075  0.74153957     0.16000
C1305       C  0.98531673  0.77319785  0.52415374    -0.13600
C1306       C  0.51002644  0.73562150  0.51066066    -0.28780
H1307       H  0.99578831  0.80088746  0.52715826     0.15420
H1308       H  0.47944690  0.74203886  0.02371930     0.16000
C1309       C  0.73539191  0.76741002  0.50066273    -0.13600
C1310       C  0.76020885  0.74125112  0.50751979    -0.28780
H1311       H  0.73258756  0.73808419  0.02966323     0.15420
H1312       H  0.75108592  0.71309574  0.51005806     0.16000
C1313       C  0.49825227  0.51540038  0.77192759    -0.13600
C1314       C  0.51427392  0.99200176  0.75245036    -0.28780
H1315       H  0.50246094  0.50400135  0.79877922     0.15420
H1316       H  0.98966634  0.99832476  0.72222891     0.16000
C1317       C  0.51269907  0.74208243  0.76418748    -0.13600
C1318       C  0.48921675  0.76717151  0.77800798    -0.28780
H1319       H  0.53788764  0.75112494  0.75127146     0.15420
H1320       H  0.99714420  0.75008558  0.79200815     0.16000
C1321       C  0.75115526  0.61033989  0.62637162    -0.10440
C1322       C  0.73772900  0.63943858  0.63401117    -0.12000
C1323       C  0.64653800  0.76498950  0.61019780    -0.10440
C1324       C  0.66189156  0.75036551  0.63488306    -0.12000
C1325       C  0.61991799  0.64160810  0.69279122    -0.10440
C1326       C  0.59306248  0.62999745  0.70719773    -0.12000
C1327       C  0.71627278  0.86949841  0.90488555    -0.10440
C1328       C  0.73558413  0.88711185  0.88523689    -0.12000
C1329       C  0.56741847  0.88575217  0.85717780    -0.10440
C1330       C  0.58841341  0.88659306  0.88215549    -0.12000
C1331       C  0.63099785  0.89096637  0.00649778    -0.10440
C1332       C  0.61866801  0.86734119  0.02534846    -0.12000
C1333       C  0.88545631  0.86215983  0.75280528    -0.10440
C1334       C  0.85703781  0.84903980  0.74227932    -0.12000
C1335       C  0.76168243  0.85515228  0.65155053    -0.10440
C1336       C  0.75080795  0.88054517  0.63408630    -0.12000
C1337       C  0.85739825  0.74432719  0.62537651    -0.10440
C1338       C  0.84303133  0.75383274  0.65338023    -0.12000
C1339       C  0.83611640  0.73371012  0.85022798    -0.10440
C1340       C  0.84716446  0.74747160  0.87790674    -0.12000
C1341       C  0.75782684  0.63036722  0.84007894    -0.10440
C1342       C  0.74935982  0.60321854  0.85611698    -0.12000
C1343       C  0.85887598  0.64387718  0.75759905    -0.10440
C1344       C  0.88836108  0.63196304  0.74902445    -0.12000
loop_ 
_geom_bond_atom_site_label_1 
_geom_bond_atom_site_label_2 
_geom_bond_distance 
_geom_bond_site_symmetry_2 
_ccdc_geom_bond_type 
C1            C2   1.394       .  A
C1            C6   1.395       .  A
C1          C163   1.427       .  S
C2            C3   1.397       .  A
C2            H7   1.085       .  S
C3            C4   1.405       .  A
C3          C165   1.435       .  S
C4            C5   1.407       .  A
C4            H8   1.084       .  S
C5            C6   1.401       .  A
C5          C167   1.436       .  S
C6            H9   1.086       .  S
C10          C11   1.398       .  A
C10          C15   1.403       .  A
C10         C162   1.430       .  S
C11          C12   1.397       .  A
C11          H16   1.085       .  S
C12          C13   1.394       .  A
C12         C158   1.426       .  S
C13          C14   1.397       .  A
C13          H17   1.085       .  S
C14          C15   1.401       .  A
C14         C159   1.432       .  S
C15          H18   1.084       .  S
C19          C20   1.403       .  A
C19          C24   1.396       .  A
C19         C151   1.430       .  S
C20          C21   1.408       .  A
C20          H25   1.084       .  S
C21          C22   1.397       .  A
C21         C155   1.428       .  S
C22          C23   1.392       .  A
C22          H26   1.086       .  S
C23          C24   1.385       .  A
C23         C154   1.421       .  S
C24          H27   1.086       .  S
C28          C29   1.403       .  A
C28          C33   1.403       .  A
C28         C149   1.430       .  S
C29          C30   1.393       .  A
C29          H34   1.085       .  S
C30          C31   1.392       .  A
C30         C148   1.427       .  S
C31          C32   1.393       .  A
C31          H35   1.086       .  S
C32          C33   1.401       .  A
C32         C146   1.426       .  S
C33          H36   1.084       .  S
O37         Cu45   2.051       .  S
O37         C719   1.283       .  A
O38         Cu45   2.043       .  S
O38         C720   1.283       .  A
O39         Cu45   1.961       .  S
O39          C49   1.275       .  A
O40        Cu717   1.980       .  S
O40          C50   1.277       .  A
O41         Cu46   2.001   1_455  S
O41          C50   1.272       .  A
O42        Cu718   2.014       .  S
O42          C49   1.274       .  A
O43         Cu46   2.037       .  S
O43          C48   1.281       .  A
O44         Cu46   2.039       .  S
O44          C47   1.282       .  A
Cu45        O712   1.980       .  S
Cu45       Cu718   2.376       .  S
Cu46        O714   1.978       .  S
Cu46       Cu717   2.376   1_655  S
C47         O709   1.279   1_655  A
C47         C141   1.491       .  S
C48         O710   1.280   1_655  A
C48         C137   1.491   1_655  S
C49         C168   1.428       .  S
C50         C150   1.423       .  S
O51         Cu59   2.027       .  S
O51         C229   1.281       .  A
O52         Cu59   2.034       .  S
O52         C230   1.281       .  A
O53         Cu59   1.996       .  S
O53          C63   1.272       .  A
O54        Cu227   1.990   1_554  S
O54          C64   1.275       .  A
O55         Cu60   1.996       .  S
O55          C64   1.274       .  A
O56        Cu228   1.985       .  S
O56          C63   1.277       .  A
O57         Cu60   2.028       .  S
O57          C62   1.279       .  A
O58         Cu60   2.028       .  S
O58          C61   1.281       .  A
Cu59        O222   1.987       .  S
Cu59       Cu228   2.377       .  S
Cu60        O224   1.999   1_554  S
Cu60       Cu227   2.376   1_554  S
C61         O219   1.280       .  A
C61         C133   1.493       .  S
C62         O220   1.281   1_554  A
C62         C130   1.487       .  S
C63         C156   1.422       .  S
C64         C147   1.422       .  S
O65         Cu73   2.036       .  S
O65         C411   1.281   1_545  A
O66         Cu73   2.031       .  S
O66         C412   1.280   1_545  A
O67         Cu73   1.981       .  S
O67          C77   1.275   1_545  A
O68        Cu409   1.994       .  S
O68          C78   1.275       .  A
O69         Cu74   2.007       .  S
O69          C78   1.275       .  A
O70        Cu410   1.995       .  S
O70          C77   1.272       .  A
O71         Cu74   2.034       .  S
O71          C76   1.280       .  A
O72         Cu74   2.035       .  S
O72          C75   1.281       .  A
Cu73        O404   1.993   1_545  S
Cu73       Cu410   2.374   1_545  S
Cu74        O406   2.001       .  S
Cu74       Cu409   2.374       .  S
C75         O401   1.281       .  A
C75         C126   1.495       .  S
C76         O402   1.282       .  A
C76         C121   1.495       .  S
C77         C145   1.419   1_565  S
C78         C160   1.427       .  S
O79         Cu87   2.019       .  S
O79          C89   1.279   1_455  A
O80         Cu87   2.026       .  S
O80          C90   1.280   1_455  A
O81        Cu759   1.994       .  S
O81          C91   1.272       .  A
O82         Cu87   1.965       .  S
O82          C92   1.271       .  A
O83        Cu760   1.993   1_455  S
O83          C92   1.274       .  A
O84         Cu88   1.976       .  S
O84          C91   1.276       .  A
O85         Cu88   2.045       .  S
O85         C762   1.281       .  A
O86         Cu88   2.029       .  S
O86         C761   1.280       .  A
Cu87        O753   1.976   1_455  S
Cu87       Cu760   2.379   1_455  S
Cu88        O755   1.996       .  S
Cu88       Cu759   2.378       .  S
C89         O758   1.280       .  A
C89         C138   1.483       .  S
C90         O757   1.281       .  A
C90         C142   1.489   1_655  S
C91         C157   1.417       .  S
C92         C153   1.411       .  S
O93        Cu101   2.042       .  S
O93         C103   1.282       .  A
O94        Cu101   2.045       .  S
O94         C104   1.282       .  A
O95        Cu437   2.003       .  S
O95         C105   1.274   1_565  A
O96        Cu101   2.002       .  S
O96         C106   1.273       .  A
O97        Cu438   1.999       .  S
O97         C106   1.277       .  A
O98        Cu102   2.006       .  S
O98         C105   1.277       .  A
O99        Cu102   2.024       .  S
O99         C440   1.279   1_545  A
O100       Cu102   2.023       .  S
O100        C439   1.278   1_545  A
Cu101       O431   1.989       .  S
Cu101      Cu438   2.375       .  S
Cu102       O433   2.004   1_545  S
Cu102      Cu437   2.373   1_545  S
C103        O436   1.280       .  A
C103        C122   1.497       .  S
C104        O435   1.280       .  A
C104        C125   1.494       .  S
C105        C166   1.431       .  S
C106        C152   1.428       .  S
O107       Cu115   2.026       .  S
O107        C285   1.281       .  A
O108       Cu115   2.031       .  S
O108        C286   1.281       .  A
O109       Cu115   2.000       .  S
O109        C119   1.272       .  A
O110       Cu283   1.968       .  S
O110        C120   1.275       .  A
O111       Cu116   2.009       .  S
O111        C120   1.273       .  A
O112       Cu284   1.972       .  S
O112        C119   1.276       .  A
O113       Cu116   2.062   1_556  S
O113        C118   1.285       .  A
O114       Cu116   2.052       .  S
O114        C117   1.283       .  A
Cu115       O278   1.991       .  S
Cu115      Cu284   2.378       .  S
Cu116       O280   1.998   1_554  S
Cu116      Cu283   2.376       .  S
C117        O275   1.278       .  A
C117        C134   1.490       .  S
C118        O276   1.279       .  A
C118        C129   1.500       .  S
C119        C164   1.418       .  S
C120        C161   1.423       .  S
C121        C290   1.352   1_554  D
C121        H459   1.086       .  S
C122        C289   1.354       .  D
C122        H124   1.086       .  S
H123        C457   1.086   1_545  S
C125        C126   1.351       .  D
C125        H463   1.086       .  S
C126        H128   1.086       .  S
H127        C461   1.087   1_545  S
C129        C802   1.351       .  D
C129        H131   1.086       .  S
C130        C801   1.348   1_454  D
C130        H300   1.087       .  S
H132        C298   1.086       .  S
C133        C134   1.349       .  D
C133        H303   1.086       .  S
C134        H136   1.087       .  S
H135        C301   1.086       .  S
C137        C474   1.346   1_455  D
C137        H139   1.087       .  S
C138        C473   1.347   1_655  D
C138        H812   1.086       .  S
H140        C810   1.086       .  S
C141        C142   1.351   1_655  D
C141        H143   1.086       .  S
C142        H816   1.086       .  S
H144        C814   1.086       .  S
C145        C146   1.196       .  T
C147        C148   1.198       .  T
C149        C150   1.198       .  T
C151        C152   1.201       .  T
C153        C154   1.193       .  T
C155        C156   1.198       .  T
C157        C158   1.194       .  T
C159        C160   1.201       .  T
C161        C162   1.198       .  T
C163        C164   1.195       .  T
C165        C166   1.203       .  T
C167        C168   1.201       .  T
C169        C170   1.401       .  A
C169        C174   1.395       .  A
C169        C331   1.429       .  S
C170        C171   1.397       .  A
C170        H175   1.085       .  S
C171        C172   1.402       .  A
C171        C333   1.434       .  S
C172        C173   1.398       .  A
C172        H176   1.085       .  S
C173        C174   1.399       .  A
C173        C335   1.432       .  S
C174        H177   1.086       .  S
C178        C179   1.397       .  A
C178        C183   1.402       .  A
C178        C330   1.429       .  S
C179        C180   1.399       .  A
C179        H184   1.085       .  S
C180        C181   1.394       .  A
C180        C326   1.432       .  S
C181        C182   1.400       .  A
C181        H185   1.086       .  S
C182        C183   1.396       .  A
C182        C327   1.431       .  S
C183        H186   1.085       .  S
C187        C188   1.397       .  A
C187        C192   1.404       .  A
C187        C319   1.430       .  S
C188        C189   1.398       .  A
C188        H193   1.085       .  S
C189        C190   1.393       .  A
C189        C323   1.427       .  S
C190        C191   1.397       .  A
C190        H194   1.086       .  S
C191        C192   1.397       .  A
C191        C322   1.432       .  S
C192        H195   1.085       .  S
C196        C197   1.395       .  A
C196        C201   1.395       .  A
C196        C317   1.429       .  S
C197        C198   1.394       .  A
C197        H202   1.086       .  S
C198        C199   1.404       .  A
C198        C316   1.429       .  S
C199        C200   1.400       .  A
C199        H203   1.085       .  S
C200        C201   1.400       .  A
C200        C314   1.435       .  S
C201        H204   1.085       .  S
O205       Cu213   2.034       .  S
O205        C887   1.281       .  A
O206       Cu213   2.037       .  S
O206        C888   1.281       .  A
O207       Cu213   2.005       .  S
O207        C217   1.274       .  A
O208       Cu885   2.008   1_455  S
O208        C218   1.278       .  A
O209       Cu214   1.980       .  S
O209        C218   1.271       .  A
O210       Cu886   1.995       .  S
O210        C217   1.276       .  A
O211       Cu214   2.046       .  S
O211        C216   1.283   1_455  A
O212       Cu214   2.050       .  S
O212        C215   1.283   1_455  A
Cu213       O880   1.992       .  S
Cu213      Cu886   2.376       .  S
Cu214       O882   1.978   1_455  S
Cu214      Cu885   2.376   1_455  S
C215        O877   1.277       .  A
C215        C309   1.489       .  S
C216        O878   1.278       .  A
C216        C305   1.493   1_655  S
C217        C336   1.427       .  S
C218        C318   1.423       .  S
O219       Cu227   2.035   1_554  S
O220       Cu227   2.036       .  S
O221       Cu227   1.984       .  S
O221        C231   1.272       .  A
O222        C232   1.275       .  A
O223       Cu228   1.997       .  S
O223        C232   1.273       .  A
O224        C231   1.276       .  A
O225       Cu228   2.028       .  S
O225        C230   1.279       .  A
O226       Cu228   2.018       .  S
O226        C229   1.278       .  A
C229        C301   1.484       .  S
C230        C298   1.491       .  S
C231        C324   1.421       .  S
C232        C315   1.422       .  S
O233       Cu241   2.035       .  S
O233        C579   1.281       .  A
O234       Cu241   2.036       .  S
O234        C580   1.280       .  A
O235       Cu241   2.010   1_545  S
O235        C245   1.275       .  A
O236       Cu577   2.000       .  S
O236        C246   1.277       .  A
O237       Cu242   1.995       .  S
O237        C246   1.273       .  A
O238       Cu578   1.994   1_545  S
O238        C245   1.275       .  A
O239       Cu242   2.042       .  S
O239        C244   1.282       .  A
O240       Cu242   2.045       .  S
O240        C243   1.282       .  A
Cu241       O572   1.993       .  S
Cu241      Cu578   2.374       .  S
Cu242       O574   1.985       .  S
Cu242      Cu577   2.375       .  S
C243        O569   1.280       .  A
C243        C294   1.494       .  S
C244        O570   1.280       .  A
C244        C289   1.497       .  S
C245        C313   1.429       .  S
C246        C328   1.425       .  S
O247       Cu255   2.037       .  S
O247        C257   1.281   1_455  A
O248       Cu255   2.037       .  S
O248        C258   1.282       .  A
O249       Cu927   1.988       .  S
O249        C259   1.275       .  A
O250       Cu255   1.992       .  S
O250        C260   1.273       .  A
O251       Cu928   2.004   1_455  S
O251        C260   1.277       .  A
O252       Cu256   2.005       .  S
O252        C259   1.275       .  A
O253       Cu256   2.020       .  S
O253        C930   1.279       .  A
O254       Cu256   2.023       .  S
O254        C929   1.280       .  A
Cu255       O921   1.981   1_455  S
Cu255      Cu928   2.375   1_455  S
Cu256       O923   1.999       .  S
Cu256      Cu927   2.376       .  S
C257        O926   1.280       .  A
C257        C306   1.494       .  S
C258        O925   1.279   1_455  A
C258        C310   1.491       .  S
C259        C325   1.425       .  S
C260        C321   1.426       .  S
O261       Cu269   2.036       .  S
O261        C271   1.281       .  A
O262       Cu269   2.035       .  S
O262        C272   1.281       .  A
O263       Cu605   1.999   1_545  S
O263        C273   1.276       .  A
O264       Cu269   2.001       .  S
O264        C274   1.273       .  A
O265       Cu606   1.987       .  S
O265        C274   1.275       .  A
O266       Cu270   1.999   1_545  S
O266        C273   1.274       .  A
O267       Cu270   2.048       .  S
O267        C608   1.282       .  A
O268       Cu270   2.048       .  S
O268        C607   1.282       .  A
Cu269       O599   1.993       .  S
Cu269      Cu606   2.375       .  S
Cu270       O601   1.981       .  S
Cu270      Cu605   2.374       .  S
C271        O604   1.281       .  A
C271        C290   1.496       .  S
C272        O603   1.281       .  A
C272        C293   1.496       .  S
C273        C334   1.427       .  S
C274        C320   1.423       .  S
O275       Cu283   2.015       .  S
O276       Cu283   2.024   1_556  S
O277       Cu283   1.989   1_556  S
O277        C287   1.272       .  A
O278        C288   1.276       .  A
O279       Cu284   1.993       .  S
O279        C288   1.273       .  A
O280        C287   1.277       .  A
O281       Cu284   2.035       .  S
O281        C286   1.280       .  A
O282       Cu284   2.019       .  S
O282        C285   1.278       .  A
C285        C302   1.484       .  S
C286        C297   1.492       .  S
C287        C332   1.423       .  S
C288        C329   1.423       .  S
C289        H627   1.086       .  S
C290        H292   1.086       .  S
H291        C625   1.086       .  S
C293        C294   1.352       .  D
C293        H631   1.086       .  S
C294        H296   1.086       .  S
H295        C629   1.086       .  S
C297        C970   1.352       .  D
C297        H299   1.086       .  S
C298        C969   1.353   1_455  D
C301        C302   1.346       .  D
C302        H304   1.086       .  S
C305        C642   1.354   1_445  D
C305        H307   1.086   1_545  S
C306        C641   1.351       .  D
C306        H980   1.086   1_655  S
H308        C978   1.086       .  S
C309        C310   1.347   1_655  D
C309        H311   1.087       .  S
C310        H984   1.086       .  S
H312        C982   1.086       .  S
C313        C314   1.203       .  T
C315        C316   1.199       .  T
C317        C318   1.199       .  T
C319        C320   1.199       .  T
C321        C322   1.201       .  T
C323        C324   1.198       .  T
C325        C326   1.201       .  T
C327        C328   1.200       .  T
C329        C330   1.199       .  T
C331        C332   1.199       .  T
C333        C334   1.202       .  T
C335        C336   1.201       .  T
C337        C338   1.407       .  A
C337        C342   1.397       .  A
C337        C499   1.428       .  S
C338        C339   1.403       .  A
C338        H343   1.084       .  S
C339        C340   1.398       .  A
C339        C501   1.433       .  S
C340        C341   1.390       .  A
C340        H344   1.085       .  S
C341        C342   1.392       .  A
C341        C503   1.425       .  S
C342        H345   1.086       .  S
C346        C347   1.399       .  A
C346        C351   1.394       .  A
C346        C498   1.434       .  S
C347        C348   1.407       .  A
C347        H352   1.084       .  S
C348        C349   1.403       .  A
C348        C494   1.426       .  S
C349        C350   1.393       .  A
C349        H353   1.085       .  S
C350        C351   1.393       .  A
C350        C495   1.427       .  S
C351        H354   1.086       .  S
C355        C356   1.399       .  A
C355        C360   1.401       .  A
C355        C487   1.433       .  S
C356        C357   1.396       .  A
C356        H361   1.085       .  S
C357        C358   1.395       .  A
C357        C491   1.426       .  S
C358        C359   1.396       .  A
C358        H362   1.085       .  S
C359        C360   1.403       .  A
C359        C490   1.428       .  S
C360        H363   1.084       .  S
C364        C365   1.392       .  A
C364        C369   1.394       .  A
C364        C485   1.425       .  S
C365        C366   1.395       .  A
C365        H370   1.086       .  S
C366        C367   1.406       .  A
C366        C484   1.434       .  S
C367        C368   1.407       .  A
C367        H371   1.084       .  S
C368        C369   1.401       .  A
C368        C482   1.436       .  S
C369        H372   1.085       .  S
O373       Cu381   2.034       .  S
O373       C1055   1.281       .  A
O374       Cu381   2.028       .  S
O374       C1056   1.280       .  A
O375       Cu381   1.960       .  S
O375        C385   1.270       .  A
O376      Cu1053   1.995       .  S
O376        C386   1.272   1_655  A
O377       Cu382   1.974       .  S
O377        C386   1.276       .  A
O378      Cu1054   2.009       .  S
O378        C385   1.276       .  A
O379       Cu382   2.025       .  S
O379        C384   1.279       .  A
O380       Cu382   2.049       .  S
O380        C383   1.282   1_455  A
Cu381      O1048   1.978       .  S
Cu381     Cu1054   2.378       .  S
Cu382      O1050   1.994       .  S
Cu382     Cu1053   2.378   1_455  S
C383       O1045   1.282       .  A
C383        C477   1.501       .  S
C384       O1046   1.279   1_455  A
C384        C473   1.483       .  S
C385        C504   1.415       .  S
C386        C486   1.418       .  S
O387       Cu395   2.029       .  S
O387        C565   1.280       .  A
O388       Cu395   2.033       .  S
O388        C566   1.281       .  A
O389       Cu395   2.003       .  S
O389        C399   1.273       .  A
O390       Cu563   1.954   1_554  S
O390        C400   1.273       .  A
O391       Cu396   2.023   1_554  S
O391        C400   1.276       .  A
O392       Cu564   1.971       .  S
O392        C399   1.274       .  A
O393       Cu396   2.042       .  S
O393        C398   1.282       .  A
O394       Cu396   2.021   1_554  S
O394        C397   1.278       .  A
Cu395       O558   1.999       .  S
Cu395      Cu564   2.377       .  S
Cu396       O560   2.013       .  S
Cu396      Cu563   2.375       .  S
C397        O555   1.282       .  A
C397        C469   1.490       .  S
C398        O556   1.282       .  A
C398        C466   1.502   1_455  S
C399        C492   1.418       .  S
C400        C483   1.426       .  S
O401       Cu409   2.040       .  S
O402       Cu409   2.043       .  S
O403       Cu409   2.009       .  S
O403        C413   1.275       .  A
O404        C414   1.273       .  A
O405       Cu410   1.992       .  S
O405        C414   1.275       .  A
O406        C413   1.276       .  A
O407       Cu410   2.059       .  S
O407        C412   1.283       .  A
O408       Cu410   2.054       .  S
O408        C411   1.283       .  A
C411        C462   1.501       .  S
C412        C457   1.497       .  S
C413        C481   1.432       .  S
C414        C496   1.421       .  S
O415       Cu423   2.044       .  S
O415        C425   1.282   1_455  A
O416       Cu423   2.053       .  S
O416        C426   1.284       .  A
O417      Cu1095   1.993       .  S
O417        C427   1.270       .  A
O418       Cu423   1.971       .  S
O418        C428   1.275   1_455  A
O419      Cu1096   2.002       .  S
O419        C428   1.273       .  A
O420       Cu424   1.989       .  S
O420        C427   1.279       .  A
O421       Cu424   2.025       .  S
O421       C1098   1.279       .  A
O422       Cu424   2.023       .  S
O422       C1097   1.278       .  A
Cu423      O1089   1.982       .  S
Cu423     Cu1096   2.376   1_455  S
Cu424      O1091   2.002       .  S
Cu424     Cu1095   2.375       .  S
C425       O1094   1.278       .  A
C425        C474   1.488   1_565  S
C426       O1093   1.280   1_455  A
C426        C478   1.502       .  S
C427        C493   1.423       .  S
C428        C489   1.421       .  S
O429       Cu437   2.062       .  S
O429        C439   1.284       .  A
O430       Cu437   2.065       .  S
O430        C440   1.284       .  A
O431        C441   1.275       .  A
O432       Cu437   1.998       .  S
O432        C442   1.275       .  A
O433        C442   1.275       .  A
O434       Cu438   2.012       .  S
O434        C441   1.275       .  A
O435       Cu438   2.032       .  S
O436       Cu438   2.035       .  S
C439        C458   1.495       .  S
C440        C461   1.498       .  S
C441        C502   1.428       .  S
C442        C488   1.428       .  S
O443       Cu451   2.021       .  S
O443        C621   1.280       .  A
O444       Cu451   2.030       .  S
O444        C622   1.280       .  A
O445       Cu451   1.996       .  S
O445        C455   1.271       .  A
O446       Cu619   1.980       .  S
O446        C456   1.275       .  A
O447       Cu452   1.999   1_554  S
O447        C456   1.273       .  A
O448       Cu620   1.988       .  S
O448        C455   1.277       .  A
O449       Cu452   2.016       .  S
O449        C454   1.278       .  A
O450       Cu452   2.015   1_554  S
O450        C453   1.277       .  A
Cu451       O614   1.983       .  S
Cu451      Cu620   2.376       .  S
Cu452       O616   1.999       .  S
Cu452      Cu619   2.377   1_556  S
C453        O611   1.283       .  A
C453        C470   1.489       .  S
C454        O612   1.284       .  A
C454        C465   1.492       .  S
C455        C500   1.423       .  S
C456        C497   1.422       .  S
C457        C626   1.351   1_554  D
C458        C625   1.349       .  D
C458        H460   1.086   1_565  S
C461        C462   1.354       .  D
C462        H464   1.086       .  S
C465       C1138   1.352   1_556  D
C465        H467   1.086       .  S
C466       C1137   1.353       .  D
C466        H636   1.086       .  S
H468        C634   1.086   1_655  S
C469        C470   1.348       .  D
C469        H639   1.086       .  S
C470        H472   1.086       .  S
H471        C637   1.086       .  S
C473        H475   1.087       .  S
C474       H1148   1.086       .  S
H476       C1146   1.086   1_545  S
C477        C478   1.356   1_655  D
C477        H479   1.086       .  S
C478       H1152   1.086       .  S
H480       C1150   1.086       .  S
C481        C482   1.204       .  T
C483        C484   1.201       .  T
C485        C486   1.194       .  T
C487        C488   1.202       .  T
C489        C490   1.196   1_655  T
C491        C492   1.195       .  T
C493        C494   1.196       .  T
C495        C496   1.198       .  T
C497        C498   1.200       .  T
C499        C500   1.198       .  T
C501        C502   1.202       .  T
C503        C504   1.195       .  T
C505        C506   1.406       .  A
C505        C510   1.397       .  A
C505        C667   1.423       .  S
C506        C507   1.402       .  A
C506        H511   1.084       .  S
C507        C508   1.397       .  A
C507        C669   1.429       .  S
C508        C509   1.385       .  A
C508        H512   1.085       .  S
C509        C510   1.389       .  A
C509        C671   1.420       .  S
C510        H513   1.086       .  S
C514        C515   1.398       .  A
C514        C519   1.409       .  A
C514        C666   1.428       .  S
C515        C516   1.393       .  A
C515        H520   1.086       .  S
C516        C517   1.387       .  A
C516        C662   1.423       .  S
C517        C518   1.396       .  A
C517        H521   1.086       .  S
C518        C519   1.402       .  A
C518        C663   1.432       .  S
C519        H522   1.084       .  S
C523        C524   1.398       .  A
C523        C528   1.405       .  A
C523        C655   1.433       .  S
C524        C525   1.400       .  A
C524        H529   1.085       .  S
C525        C526   1.392       .  A
C525        C659   1.429       .  S
C526        C527   1.397       .  A
C526        H530   1.086       .  S
C527        C528   1.399       .  A
C527        C658   1.433       .  S
C528        H531   1.085       .  S
C532        C533   1.399       .  A
C532        C537   1.399       .  A
C532        C653   1.434       .  S
C533        C534   1.394       .  A
C533        H538   1.086       .  S
C534        C535   1.399       .  A
C534        C652   1.429       .  S
C535        C536   1.396       .  A
C535        H539   1.085       .  S
C536        C537   1.404       .  A
C536        C650   1.434       .  S
C537        H540   1.085       .  S
O541       Cu549   2.053       .  S
O541       C1223   1.283       .  A
O542       Cu549   2.046       .  S
O542       C1224   1.282       .  A
O543       Cu549   1.972       .  S
O543        C553   1.272       .  A
O544      Cu1221   2.002   1_455  S
O544        C554   1.277       .  A
O545       Cu550   2.002   1_455  S
O545        C554   1.274       .  A
O546      Cu1222   1.987       .  S
O546        C553   1.273       .  A
O547       Cu550   2.027       .  S
O547        C552   1.280       .  A
O548       Cu550   2.029       .  S
O548        C551   1.281       .  A
Cu549      O1216   1.975       .  S
Cu549     Cu1222   2.378       .  S
Cu550      O1218   1.994       .  S
Cu550     Cu1221   2.375       .  S
C551       O1213   1.281       .  A
C551        C645   1.493       .  S
C552       O1214   1.281       .  A
C552        C641   1.492       .  S
C553        C672   1.411       .  S
C554        C654   1.429       .  S
O555       Cu563   2.041   1_554  S
O556       Cu563   2.045       .  S
O557       Cu563   1.975       .  S
O557        C567   1.270       .  A
O558        C568   1.277       .  A
O559       Cu564   1.987       .  S
O559        C568   1.272       .  A
O560        C567   1.279       .  A
O561       Cu564   2.035       .  S
O561        C566   1.280       .  A
O562       Cu564   2.023       .  S
O562        C565   1.279       .  A
C565        C637   1.486       .  S
C566        C634   1.492       .  S
C567        C660   1.423       .  S
C568        C651   1.423       .  S
O569       Cu577   2.029       .  S
O570       Cu577   2.036       .  S
O571       Cu577   2.008       .  S
O571        C581   1.275       .  A
O572        C582   1.276       .  A
O573       Cu578   2.007       .  S
O573        C582   1.274       .  A
O574        C581   1.274       .  A
O575       Cu578   2.047       .  S
O575        C580   1.282       .  A
O576       Cu578   2.043       .  S
O576        C579   1.282       .  A
C579        C630   1.497       .  S
C580        C625   1.497       .  S
C581        C649   1.426       .  S
C582        C664   1.428       .  S
O583       Cu591   2.039       .  S
O583        C593   1.282       .  A
O584       Cu591   2.045       .  S
O584        C594   1.282       .  A
O585      Cu1263   1.994       .  S
O585        C595   1.274       .  A
O586       Cu591   1.995   1_455  S
O586        C596   1.273       .  A
O587      Cu1264   2.006   1_455  S
O587        C596   1.278       .  A
O588       Cu592   1.968       .  S
O588        C595   1.272       .  A
O589       Cu592   2.045       .  S
O589       C1266   1.282       .  A
O590       Cu592   2.038       .  S
O590       C1265   1.281       .  A
Cu591      O1257   1.990       .  S
Cu591     Cu1264   2.375       .  S
Cu592      O1259   1.977       .  S
Cu592     Cu1263   2.376       .  S
C593       O1262   1.279       .  A
C593        C642   1.491       .  S
C594       O1261   1.279       .  A
C594        C646   1.491       .  S
C595        C661   1.412       .  S
C596        C657   1.428       .  S
O597       Cu605   2.041       .  S
O597        C607   1.281       .  A
O598       Cu605   2.031       .  S
O598        C608   1.280       .  A
O599        C609   1.277       .  A
O600       Cu605   2.013       .  S
O600        C610   1.276       .  A
O601        C610   1.274       .  A
O602       Cu606   2.000       .  S
O602        C609   1.273       .  A
O603       Cu606   2.039       .  S
O604       Cu606   2.040       .  S
C607        C626   1.499       .  S
C608        C629   1.495       .  S
C609        C670   1.426       .  S
C610        C656   1.426       .  S
O611       Cu619   2.041       .  S
O612       Cu619   2.055   1_556  S
O613       Cu619   1.982   1_556  S
O613        C623   1.269       .  A
O614        C624   1.277       .  A
O615       Cu620   1.995       .  S
O615        C624   1.271       .  A
O616        C623   1.279       .  A
O617       Cu620   2.042       .  S
O617        C622   1.281       .  A
O618       Cu620   2.030       .  S
O618        C621   1.280       .  A
C621        C638   1.487       .  S
C622        C633   1.493       .  S
C623        C668   1.421       .  S
C624        C665   1.422       .  S
C626        H628   1.086       .  S
C629        C630   1.353       .  D
C630        H632   1.086       .  S
C633       C1306   1.352       .  D
C633        H635   1.086       .  S
C634       C1305   1.354   1_455  D
C637        C638   1.349       .  D
C638        H640   1.086       .  S
C641        H643   1.086       .  S
C642       H1316   1.086       .  S
H644       C1314   1.086   1_545  S
C645        C646   1.350       .  D
C645        H647   1.086       .  S
C646       H1320   1.086       .  S
H648       C1318   1.086       .  S
C649        C650   1.202       .  T
C651        C652   1.199       .  T
C653        C654   1.202       .  T
C655        C656   1.201       .  T
C657        C658   1.202       .  T
C659        C660   1.199       .  T
C661        C662   1.194       .  T
C663        C664   1.201       .  T
C665        C666   1.197       .  T
C667        C668   1.196       .  T
C669        C670   1.200       .  T
C671        C672   1.192       .  T
C673        C674   1.395       .  A
C673        C678   1.400       .  A
C673        C835   1.432       .  S
C674        C675   1.389       .  A
C674        H679   1.086       .  S
C675        C676   1.396       .  A
C675        C837   1.426       .  S
C676        C677   1.399       .  A
C676        H680   1.085       .  S
C677        C678   1.408       .  A
C677        C839   1.431       .  S
C678        H681   1.085       .  S
C682        C683   1.395       .  A
C682        C687   1.404       .  A
C682        C834   1.426       .  S
C683        C684   1.392       .  A
C683        H688   1.085       .  S
C684        C685   1.391       .  A
C684        C830   1.421       .  S
C685        C686   1.397       .  A
C685        H689   1.086       .  S
C686        C687   1.403       .  A
C686        C831   1.429       .  S
C687        H690   1.084       .  S
C691        C692   1.399       .  A
C691        C696   1.397       .  A
C691        C823   1.429       .  S
C692        C693   1.402       .  A
C692        H697   1.084       .  S
C693        C694   1.401       .  A
C693        C827   1.428       .  S
C694        C695   1.396       .  A
C694        H698   1.085       .  S
C695        C696   1.393       .  A
C695        C826   1.427       .  S
C696        H699   1.085       .  S
C700        C701   1.400       .  A
C700        C705   1.405       .  A
C700        C821   1.426       .  S
C701        C702   1.392       .  A
C701        H706   1.086       .  S
C702        C703   1.389       .  A
C702        C820   1.424       .  S
C703        C704   1.398       .  A
C703        H707   1.086       .  S
C704        C705   1.401       .  A
C704        C818   1.429       .  S
C705        H708   1.084       .  S
O709       Cu717   2.021       .  S
O710       Cu717   2.031       .  S
O711       Cu717   2.005   1_655  S
O711        C721   1.274       .  A
O712        C722   1.268       .  A
O713       Cu718   2.000       .  S
O713        C722   1.281       .  A
O714        C721   1.275       .  A
O715       Cu718   2.016       .  S
O715        C720   1.278       .  A
O716       Cu718   2.028       .  S
O716        C719   1.279       .  A
C719        C813   1.499       .  S
C720        C809   1.488       .  S
C721        C840   1.423       .  S
C722        C822   1.423       .  S
O723       Cu731   2.038       .  S
O723        C901   1.282       .  A
O724       Cu731   2.040       .  S
O724        C902   1.282       .  A
O725       Cu731   2.003       .  S
O725        C735   1.272       .  A
O726       Cu899   1.979   1_554  S
O726        C736   1.275       .  A
O727       Cu732   1.991   1_554  S
O727        C736   1.272       .  A
O728       Cu900   1.976       .  S
O728        C735   1.276       .  A
O729       Cu732   2.057       .  S
O729        C734   1.284       .  A
O730       Cu732   2.050       .  S
O730        C733   1.283       .  A
Cu731       O894   1.998       .  S
Cu731      Cu900   2.376       .  S
Cu732       O896   1.991       .  S
Cu732      Cu899   2.376       .  S
C733        O891   1.278       .  A
C733        C805   1.488       .  S
C734        O892   1.280       .  A
C734        C802   1.501       .  S
C735        C828   1.422       .  S
C736        C819   1.414       .  S
O737       Cu745   2.048       .  S
O737       C1083   1.282   1_545  A
O738       Cu745   2.044       .  S
O738       C1084   1.282       .  A
O739       Cu745   1.991       .  S
O739        C749   1.276       .  A
O740      Cu1081   1.977       .  S
O740        C750   1.276       .  A
O741       Cu746   1.999       .  S
O741        C750   1.272       .  A
O742      Cu1082   2.002       .  S
O742        C749   1.273   1_565  A
O743       Cu746   2.039       .  S
O743        C748   1.282       .  A
O744       Cu746   2.043       .  S
O744        C747   1.281       .  A
Cu745      O1076   1.997       .  S
Cu745     Cu1082   2.374   1_545  S
Cu746      O1078   1.984       .  S
Cu746     Cu1081   2.376       .  S
C747       O1073   1.281       .  A
C747        C798   1.496       .  S
C748       O1074   1.281       .  A
C748        C793   1.495       .  S
C749        C817   1.425       .  S
C750        C832   1.422       .  S
O751       Cu759   2.026       .  S
O751        C761   1.280       .  A
O752       Cu759   2.038       .  S
O752        C762   1.282       .  A
O753        C763   1.272       .  A
O754       Cu759   1.977       .  S
O754        C764   1.275       .  A
O755        C764   1.272       .  A
O756       Cu760   1.992       .  S
O756        C763   1.274       .  A
O757       Cu760   2.036       .  S
O758       Cu760   2.029       .  S
C761        C810   1.487       .  S
C762        C814   1.497       .  S
C763        C829   1.414       .  S
C764        C825   1.418       .  S
O765       Cu773   2.035       .  S
O765        C775   1.281       .  A
O766       Cu773   2.037       .  S
O766        C776   1.281       .  A
O767      Cu1109   2.004   1_545  S
O767        C777   1.276       .  A
O768       Cu773   2.003       .  S
O768        C778   1.274       .  A
O769      Cu1110   1.990       .  S
O769        C778   1.275       .  A
O770       Cu774   1.972       .  S
O770        C777   1.271       .  A
O771       Cu774   2.048       .  S
O771       C1112   1.283   1_545  A
O772       Cu774   2.051       .  S
O772       C1111   1.283   1_545  A
Cu773      O1103   1.993       .  S
Cu773     Cu1110   2.375       .  S
Cu774      O1105   1.979   1_545  S
Cu774     Cu1109   2.374   1_545  S
C775       O1108   1.282       .  A
C775        C794   1.496       .  S
C776       O1107   1.282       .  A
C776        C797   1.496       .  S
C777        C838   1.418       .  S
C778        C824   1.424       .  S
O779       Cu787   2.043       .  S
O779        C957   1.283       .  A
O780       Cu787   2.040       .  S
O780        C958   1.282       .  A
O781       Cu787   1.995       .  S
O781        C791   1.272       .  A
O782       Cu955   1.989       .  S
O782        C792   1.271       .  A
O783       Cu788   1.986       .  S
O783        C792   1.277   1_554  A
O784       Cu956   2.009       .  S
O784        C791   1.278       .  A
O785       Cu788   2.029       .  S
O785        C790   1.280   1_554  A
O786       Cu788   2.027       .  S
O786        C789   1.278       .  A
Cu787       O950   1.987       .  S
Cu787      Cu956   2.375       .  S
Cu788       O952   2.016       .  S
Cu788      Cu955   2.376   1_554  S
C789        O947   1.282   1_554  A
C789        C806   1.488       .  S
C790        O948   1.280       .  A
C790        C801   1.488       .  S
C791        C836   1.428       .  S
C792        C833   1.419   1_556  S
C793        C962   1.353   1_554  D
C793       H1131   1.086   1_554  S
C794        C961   1.352       .  D
C794        H796   1.086       .  S
H795       C1129   1.086   1_556  S
C797        C798   1.353       .  D
C797       H1135   1.086       .  S
C798        H800   1.086       .  S
H799       C1133   1.086   1_545  S
C801        H803   1.086   1_655  S
C802        H972   1.086       .  S
H804        C970   1.086       .  S
C805        C806   1.346   1_556  D
C805        H975   1.087       .  S
C806        H808   1.086       .  S
H807        C973   1.086       .  S
C809       C1146   1.347   1_545  D
C809        H811   1.087       .  S
C810       C1145   1.348       .  D
C813        C814   1.355       .  D
C813        H815   1.086       .  S
C817        C818   1.200       .  T
C819        C820   1.193       .  T
C821        C822   1.197       .  T
C823        C824   1.200       .  T
C825        C826   1.195       .  T
C827        C828   1.197       .  T
C829        C830   1.194       .  T
C831        C832   1.197       .  T
C833        C834   1.196       .  T
C835        C836   1.202       .  T
C837        C838   1.197       .  T
C839        C840   1.199       .  T
C841        C842   1.402       .  A
C841        C846   1.399       .  A
C841       C1003   1.436       .  S
C842        C843   1.405       .  A
C842        H847   1.085       .  S
C843        C844   1.401       .  A
C843       C1005   1.431       .  S
C844        C845   1.396       .  A
C844        H848   1.085       .  S
C845        C846   1.398       .  A
C845       C1007   1.433       .  S
C846        H849   1.085       .  S
C850        C851   1.399       .  A
C850        C855   1.402       .  A
C850       C1002   1.437       .  S
C851        C852   1.403       .  A
C851        H856   1.085       .  S
C852        C853   1.396       .  A
C852        C998   1.434       .  S
C853        C854   1.400       .  A
C853        H857   1.085       .  S
C854        C855   1.398       .  A
C854        C999   1.434       .  S
C855        H858   1.085       .  S
C859        C860   1.397       .  A
C859        C864   1.402       .  A
C859        C991   1.431       .  S
C860        C861   1.403       .  A
C860        H865   1.085       .  S
C861        C862   1.396       .  A
C861        C995   1.428       .  S
C862        C863   1.397       .  A
C862        H866   1.085       .  S
C863        C864   1.393       .  A
C863        C994   1.431       .  S
C864        H867   1.085       .  S
C868        C869   1.402       .  A
C868        C873   1.400       .  A
C868        C989   1.435       .  S
C869        C870   1.397       .  A
C869        H874   1.085       .  S
C870        C871   1.399       .  A
C870        C988   1.430       .  S
C871        C872   1.394       .  A
C871        H875   1.086       .  S
C872        C873   1.402       .  A
C872        C986   1.433       .  S
C873        H876   1.085       .  S
O877       Cu885   2.014       .  S
O878       Cu885   2.018       .  S
O879       Cu885   2.019       .  S
O879        C889   1.278       .  A
O880        C890   1.275       .  A
O881       Cu886   2.010       .  S
O881        C890   1.275       .  A
O882        C889   1.272       .  A
O883       Cu886   2.028       .  S
O883        C888   1.279       .  A
O884       Cu886   2.026       .  S
O884        C887   1.280       .  A
C887        C981   1.491       .  S
C888        C977   1.490       .  S
C889       C1008   1.426       .  S
C890        C990   1.429       .  S
O891       Cu899   2.016       .  S
O892       Cu899   2.032       .  S
O893       Cu899   1.988       .  S
O893        C903   1.272       .  A
O894        C904   1.277       .  A
O895       Cu900   1.994       .  S
O895        C904   1.273       .  A
O896        C903   1.276       .  A
O897       Cu900   2.026       .  S
O897        C902   1.279       .  A
O898       Cu900   2.023       .  S
O898        C901   1.279       .  A
C901        C973   1.490       .  S
C902        C970   1.493       .  S
C903        C996   1.420       .  S
C904        C987   1.425       .  S
O905       Cu913   2.047       .  S
O905       C1251   1.282       .  A
O906       Cu913   2.059       .  S
O906       C1252   1.284       .  A
O907       Cu913   2.001   1_545  S
O907        C917   1.274       .  A
O908      Cu1249   1.998       .  S
O908        C918   1.276       .  A
O909       Cu914   2.003       .  S
O909        C918   1.274       .  A
O910      Cu1250   1.993   1_545  S
O910        C917   1.275       .  A
O911       Cu914   2.034       .  S
O911        C916   1.280       .  A
O912       Cu914   2.037       .  S
O912        C915   1.281       .  A
Cu913      O1244   1.995       .  S
Cu913     Cu1250   2.373       .  S
Cu914      O1246   1.999       .  S
Cu914     Cu1249   2.374       .  S
C915       O1241   1.282       .  A
C915        C966   1.496       .  S
C916       O1242   1.282       .  A
C916        C961   1.496       .  S
C917        C985   1.426       .  S
C918       C1000   1.428       .  S
O919       Cu927   2.039       .  S
O919        C929   1.281       .  A
O920       Cu927   2.040       .  S
O920        C930   1.282       .  A
O921        C931   1.273       .  A
O922       Cu927   1.994       .  S
O922        C932   1.273       .  A
O923        C932   1.276       .  A
O924       Cu928   2.015       .  S
O924        C931   1.276       .  A
O925       Cu928   2.026       .  S
O926       Cu928   2.032       .  S
C929        C978   1.492       .  S
C930        C982   1.489       .  S
C931        C997   1.427       .  S
C932        C993   1.425       .  S
O933       Cu941   2.037       .  S
O933        C943   1.281       .  A
O934       Cu941   2.042       .  S
O934        C944   1.281       .  A
O935      Cu1277   1.970   1_545  S
O935        C945   1.275       .  A
O936       Cu941   2.001       .  S
O936        C946   1.273       .  A
O937      Cu1278   1.991       .  S
O937        C946   1.276       .  A
O938       Cu942   2.009   1_545  S
O938        C945   1.273       .  A
O939       Cu942   2.009       .  S
O939       C1280   1.277       .  A
O940       Cu942   2.017       .  S
O940       C1279   1.277       .  A
Cu941      O1271   1.989       .  S
Cu941     Cu1278   2.375       .  S
Cu942      O1273   1.987       .  S
Cu942     Cu1277   2.373       .  S
C943       O1276   1.281       .  A
C943        C962   1.495       .  S
C944       O1275   1.281       .  A
C944        C965   1.495       .  S
C945       C1006   1.424       .  S
C946        C992   1.424       .  S
O947       Cu955   2.041       .  S
O948       Cu955   2.031       .  S
O949       Cu955   1.958       .  S
O949        C959   1.273       .  A
O950        C960   1.274       .  A
O951       Cu956   2.016       .  S
O951        C960   1.277       .  A
O952        C959   1.275   1_554  A
O953       Cu956   2.023       .  S
O953        C958   1.279       .  A
O954       Cu956   2.017       .  S
O954        C957   1.278       .  A
C957        C974   1.489       .  S
C958        C969   1.492       .  S
C959       C1004   1.423       .  S
C960       C1001   1.430       .  S
C961       H1299   1.086       .  S
C962        H964   1.086       .  S
H963       C1297   1.086       .  S
C965        C966   1.353       .  D
C965       H1303   1.086       .  S
C966        H968   1.086       .  S
H967       C1301   1.087       .  S
C969        H971   1.086   1_655  S
C973        C974   1.348       .  D
C974        H976   1.086       .  S
C977       C1314   1.348   1_545  D
C977        H979   1.086       .  S
C978       C1313   1.349       .  D
C981        C982   1.349       .  D
C981        H983   1.086       .  S
C985        C986   1.202       .  T
C987        C988   1.200       .  T
C989        C990   1.202       .  T
C991        C992   1.200       .  T
C993        C994   1.200       .  T
C995        C996   1.198       .  T
C997        C998   1.202       .  T
C999       C1000   1.202       .  T
C1001      C1002   1.203       .  T
C1003      C1004   1.200       .  T
C1005      C1006   1.198       .  T
C1007      C1008   1.201       .  T
C1009      C1010   1.403       .  A
C1009      C1014   1.397       .  A
C1009      C1171   1.425       .  S
C1010      C1011   1.401       .  A
C1010      H1015   1.084       .  S
C1011      C1012   1.398       .  A
C1011      C1173   1.430       .  S
C1012      C1013   1.393       .  A
C1012      H1016   1.085       .  S
C1013      C1014   1.392       .  A
C1013      C1175   1.423       .  S
C1014      H1017   1.086       .  S
C1018      C1019   1.394       .  A
C1018      C1023   1.391       .  A
C1018      C1170   1.425       .  S
C1019      C1020   1.400       .  A
C1019      H1024   1.085       .  S
C1020      C1021   1.402       .  A
C1020      C1166   1.423       .  S
C1021      C1022   1.397       .  A
C1021      H1025   1.084       .  S
C1022      C1023   1.397       .  A
C1022      C1167   1.427       .  S
C1023      H1026   1.086       .  S
C1027      C1028   1.393       .  A
C1027      C1032   1.397       .  A
C1027      C1159   1.429       .  S
C1028      C1029   1.399       .  A
C1028      H1033   1.085       .  S
C1029      C1030   1.403       .  A
C1029      C1163   1.425       .  S
C1030      C1031   1.400       .  A
C1030      H1034   1.084       .  S
C1031      C1032   1.400       .  A
C1031      C1162   1.433       .  S
C1032      H1035   1.085       .  S
C1036      C1037   1.393       .  A
C1036      C1041   1.389       .  A
C1036      C1157   1.425       .  S
C1037      C1038   1.400       .  A
C1037      H1042   1.085       .  S
C1038      C1039   1.406       .  A
C1038      C1156   1.433       .  S
C1039      C1040   1.405       .  A
C1039      H1043   1.084       .  S
C1040      C1041   1.395       .  A
C1040      C1154   1.430       .  S
C1041      H1044   1.086       .  S
O1045     Cu1053   2.043       .  S
O1046     Cu1053   2.024       .  S
O1047     Cu1053   1.972       .  S
O1047      C1057   1.274       .  A
O1048      C1058   1.272       .  A
O1049     Cu1054   2.000       .  S
O1049      C1058   1.276       .  A
O1050      C1057   1.272   1_455  A
O1051     Cu1054   2.028       .  S
O1051      C1056   1.280       .  A
O1052     Cu1054   2.036       .  S
O1052      C1055   1.280       .  A
C1055      C1149   1.492       .  S
C1056      C1145   1.486       .  S
C1057      C1176   1.415       .  S
C1058      C1158   1.419       .  S
O1059     Cu1067   2.038       .  S
O1059      C1237   1.283       .  A
O1060     Cu1067   2.038       .  S
O1060      C1238   1.282       .  A
O1061     Cu1067   1.991       .  S
O1061      C1071   1.270       .  A
O1062     Cu1235   2.005       .  S
O1062      C1072   1.273       .  A
O1063     Cu1068   1.976       .  S
O1063      C1072   1.276   1_554  A
O1064     Cu1236   1.988       .  S
O1064      C1071   1.279       .  A
O1065     Cu1068   2.027       .  S
O1065      C1070   1.280       .  A
O1066     Cu1068   2.035       .  S
O1066      C1069   1.280       .  A
Cu1067     O1230   1.975       .  S
Cu1067    Cu1236   2.377       .  S
Cu1068     O1232   2.006       .  S
Cu1068    Cu1235   2.375   1_554  S
C1069      O1227   1.282   1_554  A
C1069      C1141   1.495       .  S
C1070      O1228   1.281   1_554  A
C1070      C1138   1.489       .  S
C1071      C1164   1.422       .  S
C1072      C1155   1.424       .  S
O1073     Cu1081   2.036       .  S
O1074     Cu1081   2.034       .  S
O1075     Cu1081   1.994       .  S
O1075      C1085   1.272       .  A
O1076      C1086   1.273   1_545  A
O1077     Cu1082   1.990       .  S
O1077      C1086   1.275       .  A
O1078      C1085   1.277       .  A
O1079     Cu1082   2.036       .  S
O1079      C1084   1.281   1_565  A
O1080     Cu1082   2.037       .  S
O1080      C1083   1.281       .  A
C1083      C1134   1.495       .  S
C1084      C1129   1.496       .  S
C1085      C1153   1.423       .  S
C1086      C1168   1.422       .  S
O1087     Cu1095   2.034       .  S
O1087      C1097   1.282       .  A
O1088     Cu1095   2.045       .  S
O1088      C1098   1.282       .  A
O1089      C1099   1.269       .  A
O1090     Cu1095   1.975       .  S
O1090      C1100   1.275       .  A
O1091      C1100   1.273       .  A
O1092     Cu1096   1.995       .  S
O1092      C1099   1.279   1_655  A
O1093     Cu1096   2.038       .  S
O1094     Cu1096   2.026       .  S
C1097      C1146   1.489       .  S
C1098      C1150   1.494       .  S
C1099      C1165   1.420       .  S
C1100      C1161   1.422       .  S
O1101     Cu1109   2.041       .  S
O1101      C1111   1.281       .  A
O1102     Cu1109   2.037       .  S
O1102      C1112   1.280       .  A
O1103      C1113   1.275       .  A
O1104     Cu1109   2.008       .  S
O1104      C1114   1.276       .  A
O1105      C1114   1.272       .  A
O1106     Cu1110   2.001       .  S
O1106      C1113   1.274       .  A
O1107     Cu1110   2.040       .  S
O1108     Cu1110   2.043       .  S
C1111      C1130   1.502       .  S
C1112      C1133   1.497       .  S
C1113      C1174   1.425       .  S
C1114      C1160   1.423       .  S
O1115     Cu1123   2.044       .  S
O1115      C1293   1.283       .  A
O1116     Cu1123   2.048       .  S
O1116      C1294   1.283       .  A
O1117     Cu1123   1.991       .  S
O1117      C1127   1.270       .  A
O1118     Cu1291   1.975   1_554  S
O1118      C1128   1.274       .  A
O1119     Cu1124   1.996   1_554  S
O1119      C1128   1.272       .  A
O1120     Cu1292   1.988       .  S
O1120      C1127   1.278       .  A
O1121     Cu1124   2.065       .  S
O1121      C1126   1.284       .  A
O1122     Cu1124   2.061       .  S
O1122      C1125   1.284       .  A
Cu1123     O1286   1.991       .  S
Cu1123    Cu1292   2.377       .  S
Cu1124     O1288   2.005       .  S
Cu1124    Cu1291   2.375       .  S
C1125      O1283   1.277       .  A
C1125      C1142   1.493       .  S
C1126      O1284   1.279       .  A
C1126      C1137   1.499       .  S
C1127      C1172   1.421       .  S
C1128      C1169   1.416       .  S
C1129      C1298   1.349   1_544  D
C1130      C1297   1.353       .  D
C1130      H1132   1.086       .  S
C1133      C1134   1.352       .  D
C1134      H1136   1.086       .  S
C1137      H1139   1.086       .  S
C1138      H1308   1.087       .  S
H1140      C1306   1.086       .  S
C1141      C1142   1.349   1_554  D
C1141      H1311   1.086       .  S
C1142      H1144   1.087       .  S
H1143      C1309   1.086       .  S
C1145      H1147   1.086       .  S
C1149      C1150   1.353       .  D
C1149      H1151   1.086       .  S
C1153      C1154   1.199       .  T
C1155      C1156   1.200   1_556  T
C1157      C1158   1.197       .  T
C1159      C1160   1.199       .  T
C1161      C1162   1.198       .  T
C1163      C1164   1.196       .  T
C1165      C1166   1.194   1_455  T
C1167      C1168   1.198       .  T
C1169      C1170   1.194       .  T
C1171      C1172   1.196       .  T
C1173      C1174   1.200       .  T
C1175      C1176   1.193       .  T
C1177      C1178   1.398       .  A
C1177      C1182   1.396       .  A
C1177      C1339   1.429       .  S
C1178      C1179   1.394       .  A
C1178      H1183   1.086       .  S
C1179      C1180   1.403       .  A
C1179      C1341   1.431       .  S
C1180      C1181   1.399       .  A
C1180      H1184   1.085       .  S
C1181      C1182   1.400       .  A
C1181      C1343   1.434       .  S
C1182      H1185   1.085       .  S
C1186      C1187   1.398       .  A
C1186      C1191   1.401       .  A
C1186      C1338   1.433       .  S
C1187      C1188   1.402       .  A
C1187      H1192   1.085       .  S
C1188      C1189   1.401       .  A
C1188      C1334   1.438       .  S
C1189      C1190   1.404       .  A
C1189      H1193   1.085       .  S
C1190      C1191   1.396       .  A
C1190      C1335   1.438       .  S
C1191      H1194   1.086       .  S
C1195      C1196   1.404       .  A
C1195      C1200   1.394       .  A
C1195      C1327   1.432       .  S
C1196      C1197   1.408       .  A
C1196      H1201   1.084       .  S
C1197      C1198   1.402       .  A
C1197      C1331   1.433   1_556  S
C1198      C1199   1.394       .  A
C1198      H1202   1.085       .  S
C1199      C1200   1.390       .  A
C1199      C1330   1.425       .  S
C1200      H1203   1.086       .  S
C1204      C1205   1.392       .  A
C1204      C1209   1.385       .  A
C1204      C1325   1.419       .  S
C1205      C1206   1.395       .  A
C1205      H1210   1.086       .  S
C1206      C1207   1.411       .  A
C1206      C1324   1.430       .  S
C1207      C1208   1.405       .  A
C1207      H1211   1.084       .  S
C1208      C1209   1.396       .  A
C1208      C1322   1.433       .  S
C1209      H1212   1.086       .  S
O1213     Cu1221   2.037       .  S
O1214     Cu1221   2.040       .  S
O1215     Cu1221   2.007       .  S
O1215      C1225   1.275       .  A
O1216      C1226   1.272       .  A
O1217     Cu1222   1.982       .  S
O1217      C1226   1.273       .  A
O1218      C1225   1.276       .  A
O1219     Cu1222   2.017       .  S
O1219      C1224   1.278       .  A
O1220     Cu1222   2.030       .  S
O1220      C1223   1.279       .  A
C1223      C1317   1.490       .  S
C1224      C1313   1.487       .  S
C1225      C1344   1.428       .  S
C1226      C1326   1.410       .  S
O1227     Cu1235   2.045       .  S
O1228     Cu1235   2.045       .  S
O1229     Cu1235   1.973       .  S
O1229      C1239   1.276   1_556  A
O1230      C1240   1.274       .  A
O1231     Cu1236   2.003       .  S
O1231      C1240   1.274       .  A
O1232      C1239   1.272       .  A
O1233     Cu1236   2.031       .  S
O1233      C1238   1.280       .  A
O1234     Cu1236   2.016       .  S
O1234      C1237   1.277       .  A
C1237      C1309   1.488       .  S
C1238      C1306   1.495       .  S
C1239      C1332   1.425       .  S
C1240      C1323   1.422       .  S
O1241     Cu1249   2.041       .  S
O1242     Cu1249   2.042       .  S
O1243     Cu1249   2.010       .  S
O1243      C1253   1.274       .  A
O1244      C1254   1.275       .  A
O1245     Cu1250   2.005       .  S
O1245      C1254   1.275       .  A
O1246      C1253   1.277       .  A
O1247     Cu1250   2.033       .  S
O1247      C1252   1.280       .  A
O1248     Cu1250   2.022       .  S
O1248      C1251   1.280       .  A
C1251      C1302   1.496       .  S
C1252      C1297   1.501       .  S
C1253      C1321   1.431       .  S
C1254      C1336   1.429       .  S
O1255     Cu1263   2.030       .  S
O1255      C1265   1.280       .  A
O1256     Cu1263   2.036       .  S
O1256      C1266   1.281       .  A
O1257      C1267   1.274       .  A
O1258     Cu1263   2.002       .  S
O1258      C1268   1.277       .  A
O1259      C1268   1.271       .  A
O1260     Cu1264   2.018       .  S
O1260      C1267   1.277       .  A
O1261     Cu1264   2.021       .  S
O1262     Cu1264   2.027       .  S
C1265      C1314   1.490       .  S
C1266      C1318   1.498       .  S
C1267      C1333   1.431       .  S
C1268      C1329   1.419       .  S
O1269     Cu1277   2.062       .  S
O1269      C1279   1.284       .  A
O1270     Cu1277   2.059       .  S
O1270      C1280   1.284       .  A
O1271      C1281   1.275       .  A
O1272     Cu1277   1.991       .  S
O1272      C1282   1.271       .  A
O1273      C1282   1.278       .  A
O1274     Cu1278   1.997       .  S
O1274      C1281   1.273       .  A
O1275     Cu1278   2.034       .  S
O1276     Cu1278   2.036       .  S
C1279      C1298   1.492       .  S
C1280      C1301   1.491       .  S
C1281      C1342   1.423       .  S
C1282      C1328   1.423       .  S
O1283     Cu1291   2.017       .  S
O1284     Cu1291   2.024       .  S
O1285     Cu1291   1.984       .  S
O1285      C1295   1.271       .  A
O1286      C1296   1.276       .  A
O1287     Cu1292   2.004       .  S
O1287      C1296   1.274       .  A
O1288      C1295   1.278       .  A
O1289     Cu1292   2.020       .  S
O1289      C1294   1.278       .  A
O1290     Cu1292   2.012       .  S
O1290      C1293   1.277       .  A
C1293      C1310   1.487       .  S
C1294      C1305   1.495       .  S
C1295      C1340   1.424       .  S
C1296      C1337   1.427       .  S
C1298      H1300   1.087       .  S
C1301      C1302   1.351       .  D
C1302      H1304   1.086       .  S
C1305      H1307   1.086       .  S
C1309      C1310   1.346       .  D
C1310      H1312   1.086       .  S
C1313      H1315   1.086       .  S
C1317      C1318   1.351       .  D
C1317      H1319   1.086       .  S
C1321      C1322   1.203       .  T
C1323      C1324   1.199       .  T
C1325      C1326   1.192       .  T
C1327      C1328   1.199       .  T
C1329      C1330   1.197       .  T
C1331      C1332   1.199       .  T
C1333      C1334   1.204       .  T
C1335      C1336   1.204       .  T
C1337      C1338   1.201       .  T
C1339      C1340   1.199       .  T
C1341      C1342   1.200       .  T
C1343      C1344   1.202       .  T
