geometry optimzed in LAMMPS
_audit_creation_date              2020-11-30 
_audit_creation_method            'lammps2cif' 
_symmetry_space_group_name_H-M    'P1' 
_symmetry_Int_Tables_number       1 
_symmetry_cell_setting            triclinic 
loop_ 
_symmetry_equiv_pos_as_xyz 
  x,y,z 
_cell_length_a                    33.07805959 
_cell_length_b                    33.157848754162686 
_cell_length_c                    40.77460843352738 
_cell_angle_alpha                 89.99049674270582 
_cell_angle_beta                  90.0181783727645 
_cell_angle_gamma                 120.06343865819602 
loop_ 
_atom_site_label 
_atom_site_type_symbol 
_atom_site_fract_x 
_atom_site_fract_y 
_atom_site_fract_z 
_atom_site_charge 
Zn1        Zn  0.30164843  0.10160028  0.89587704     1.49700
Zn2        Zn  0.39875037  0.20137599  0.89643879     1.49400
Zn3        Zn  0.29950020  0.19878353  0.89710550     1.49100
Zn4        Zn  0.33271407  0.16496504  0.95723365     1.49500
O5          O  0.33321935  0.16678705  0.91048831    -1.82700
O6          O  0.34649011  0.09084265  0.86867378    -0.73400
O7          O  0.40990051  0.25743943  0.86931028    -0.73200
O8          O  0.24372997  0.15474784  0.86956564    -0.72700
O9          O  0.41363635  0.15834068  0.87030023    -0.73400
O10         O  0.24441909  0.08794433  0.86972165    -0.73000
O11         O  0.34244805  0.25701406  0.87127004    -0.73600
O12         O  0.29883477  0.19124727  0.97711804    -0.72900
O13         O  0.44377674  0.22583246  0.93555896    -0.73700
O14         O  0.27572469  0.21927830  0.93654166    -0.73100
O15         O  0.39331478  0.19831204  0.97655491    -0.73600
O16         O  0.30619995  0.10397748  0.97563304    -0.73500
O17         O  0.27975700  0.05484281  0.93391817    -0.73300
C18         C  0.38973829  0.11570804  0.86153264     0.78500
C19         C  0.38508393  0.27589781  0.86236505     0.79000
C20         C  0.22559292  0.11191707  0.86152111     0.78000
C21         C  0.27862865  0.21246827  0.96700776     0.78400
C22         C  0.43460521  0.22096628  0.96615916     0.79500
C23         C  0.28583740  0.06307927  0.96457097     0.78500
Zn24       Zn  0.33363194  0.16696082  0.67737078     1.49700
Zn25       Zn  0.27021592  0.13553581  0.61214899     1.49400
Zn26       Zn  0.36696877  0.23127668  0.61240361     1.49100
Zn27       Zn  0.36556686  0.13499434  0.61207160     1.49500
O28         O  0.33414765  0.16726566  0.62903944    -1.82700
O29         O  0.26526378  0.13305611  0.69401451    -0.73400
O30         O  0.25895147  0.17640535  0.58219788    -0.73200
O31         O  0.38935941  0.27779825  0.64902962    -0.72700
O32         O  0.22290430  0.11176079  0.64820081    -0.73400
O33         O  0.36811967  0.23493944  0.69458976    -0.73000
O34         O  0.32649831  0.24295979  0.58209266    -0.73600
O35         O  0.41830096  0.17562565  0.58215672    -0.72900
O36         O  0.25779874  0.08262595  0.58274273    -0.73700
O37         O  0.42077019  0.24370359  0.58323101    -0.73100
O38         O  0.32431166  0.08164098  0.58283783    -0.73600
O39         O  0.38876525  0.11172474  0.64848370    -0.73500
O40         O  0.36688187  0.13225049  0.69423795    -0.73300
C41         C  0.22567951  0.11304000  0.67934256     0.78500
C42         C  0.28517546  0.21742236  0.57146557     0.79000
C43         C  0.38768774  0.27462378  0.68017728     0.78000
C44         C  0.43514709  0.21728811  0.57218903     0.78400
C45         C  0.28298883  0.06640405  0.57244151     0.79500
C46         C  0.38691380  0.11276213  0.67962441     0.78500
C47         C  0.99949333  0.00001734  0.73902910     0.46900
H48         H  0.99901510  0.99949096  0.71181995    -0.02200
C49         C  0.00054614  0.50110499  0.80268936     0.46900
H50         H  0.00126120  0.50163739  0.82987955    -0.02200
C51         C  0.04971004  0.02559413  0.75354545    -0.15900
C52         C  0.47440485  0.02483311  0.75398526    -0.15600
C53         C  0.47510665  0.45042446  0.75435819    -0.16000
C54         C  0.05002886  0.02500977  0.78744314    -0.16000
C55         C  0.47620065  0.02649723  0.78790283    -0.15500
C56         C  0.47458700  0.45115787  0.78825670    -0.15900
Zn57       Zn  0.13606540  0.27005474  0.42477392     1.49700
Zn58       Zn  0.16911180  0.33477636  0.36022498     1.49400
Zn59       Zn  0.13710057  0.36591556  0.42548990     1.49100
Zn60       Zn  0.23265504  0.36559629  0.42559896     1.49500
O61         O  0.16881282  0.33404689  0.40849431    -1.82700
O62         O  0.11368382  0.22407117  0.38807472    -0.73400
O63         O  0.13475094  0.36836896  0.34365809    -0.73200
O64         O  0.08421673  0.32518605  0.45492339    -0.72700
O65         O  0.13553854  0.26724560  0.34265725    -0.73400
O66         O  0.08252455  0.25748220  0.45442540    -0.73000
O67         O  0.11375787  0.38937894  0.38952857    -0.73600
O68         O  0.24399248  0.41718913  0.45623537    -0.72900
O69         O  0.23731385  0.36951288  0.34359164    -0.73700
O70         O  0.17771224  0.41862965  0.45510402    -0.73100
O71         O  0.27965911  0.39088084  0.38944041    -0.73600
O72         O  0.24496531  0.32378539  0.45403611    -0.73500
O73         O  0.17701668  0.25767882  0.45379668    -0.73300
C74         C  0.11583848  0.22753448  0.35697549     0.78500
C75         C  0.11491769  0.38793356  0.35840537     0.79000
C76         C  0.06772619  0.28372598  0.46514321     0.78000
C77         C  0.21857181  0.43334795  0.46623013     0.78400
C78         C  0.27685536  0.38976671  0.35829917     0.79500
C79         C  0.21857780  0.28244076  0.46415852     0.78500
Zn80       Zn  0.20228901  0.30241141  0.14260356     1.49700
Zn81       Zn  0.20028943  0.39949110  0.14164390     1.49400
Zn82       Zn  0.16972490  0.33354342  0.08097570     1.49100
Zn83       Zn  0.10294253  0.29992549  0.14131668     1.49500
O84         O  0.16878119  0.33396533  0.12776277    -1.82700
O85         O  0.25744132  0.34649650  0.17047637    -0.73400
O86         O  0.22168673  0.44466499  0.10255426    -0.73200
O87         O  0.20393979  0.30643372  0.06277133    -0.72700
O88         O  0.25813504  0.41391998  0.16801121    -0.73400
O89         O  0.22778793  0.28136598  0.10470265    -0.73000
O90         O  0.19716728  0.39408065  0.06160817    -0.73600
O91         O  0.05838605  0.27655567  0.10200481    -0.72900
O92         O  0.15493509  0.41056960  0.16853183    -0.73700
O93         O  0.10911616  0.30020174  0.06116389    -0.73100
O94         O  0.08811730  0.34265190  0.16765823    -0.73600
O95         O  0.09057613  0.24347292  0.16827703    -0.73500
O96         O  0.15836056  0.24457060  0.16790650    -0.73300
C97         C  0.27635211  0.38977050  0.17732470     0.78500
C98         C  0.21661730  0.43533072  0.07199059     0.79000
C99         C  0.22499838  0.28664289  0.07401422     0.78000
C100        C  0.06766092  0.27967203  0.07145387     0.78400
C101        C  0.11180286  0.38540264  0.17608936     0.79500
C102        C  0.11540948  0.22533658  0.17598627     0.78500
C103        C  0.00194128  0.00024832  0.23575352     0.46900
H104        H  0.00112774  0.99953485  0.20856948    -0.02200
C105        C  0.00334845  0.00203445  0.29941822     0.46900
H106        H  0.00406791  0.00305039  0.32660772    -0.02200
C107        C  0.45253165  0.47658152  0.25108456    -0.15900
C108        C  0.02638125  0.47498282  0.25069699    -0.15600
C109        C  0.02788247  0.05028359  0.24997849    -0.16000
C110        C  0.45309651  0.47637832  0.28497897    -0.16000
C111        C  0.02827383  0.47698905  0.28463737    -0.15500
C112        C  0.02767902  0.05137231  0.28384434    -0.15900
C113        C  0.05174818  0.09341320  0.22869205    -0.03900
C114        C  0.02711132  0.10129306  0.20334233    -0.01100
C115        C  0.04784594  0.14417688  0.18626504     0.03900
C116        C  0.09359316  0.18001344  0.19408818    -0.03900
C117        C  0.11915537  0.17134998  0.21808285    -0.01000
C118        C  0.09899154  0.12801543  0.23442612     0.03900
C119        C  0.47986213  0.06629658  0.19468479     0.38600
C120        C  0.16612994  0.20748354  0.22682152     0.38600
C121        C  0.12836191  0.11904783  0.25603919     0.37000
C122        C  0.02203168  0.15074022  0.15995876     0.37000
N123        N  0.15349040  0.11408438  0.27307855    -0.37800
N124        N  0.00130834  0.15578154  0.13903845    -0.37800
N125        N  0.20356372  0.23619898  0.23381358    -0.37300
N126        N  0.44235865  0.03993487  0.18615912    -0.37300
C127        C  0.40842399  0.45665639  0.23054105    -0.03900
C128        C  0.37392123  0.46940379  0.23646694    -0.01100
C129        C  0.33072563  0.44710067  0.21965920     0.03900
C130        C  0.32165495  0.41290520  0.19564922    -0.03900
C131        C  0.35693380  0.40210814  0.18818749    -0.01000
C132        C  0.39990400  0.42384957  0.20529466     0.03900
C133        C  0.38269545  0.50682381  0.25885950     0.38600
C134        C  0.34969467  0.36916319  0.16217299     0.38600
C135        C  0.43422594  0.41065706  0.19683527     0.37000
C136        C  0.29512790  0.45887458  0.22778536     0.37000
N137        N  0.45984002  0.39853366  0.18847407    -0.37800
N138        N  0.26683631  0.46837429  0.23421901    -0.37800
N139        N  0.34404755  0.34288408  0.14152719    -0.37300
N140        N  0.38729707  0.53597659  0.27666703    -0.37300
C141        C  0.08814202  0.40695608  0.19425487    -0.03900
C142        C  0.05751051  0.38343025  0.22051468    -0.01100
C143        C  0.03462671  0.40381866  0.23711393     0.03900
C144        C  0.04520852  0.45009877  0.22974469    -0.03900
C145        C  0.07475085  0.47270029  0.20244181    -0.01000
C146        C  0.09474940  0.45064816  0.18438023     0.03900
C147        C  0.05003792  0.33833717  0.23101661     0.38600
C148        C  0.08667697  0.51941461  0.19285617     0.38600
C149        C  0.12060173  0.47223353  0.15452429     0.37000
C150        C  0.49881603  0.37556563  0.26074301     0.37000
N151        N  0.14065951  0.48906548  0.13050976    -0.37800
N152        N  0.47085394  0.35147218  0.27949328    -0.37800
N153        N  0.09756185  0.05648467  0.18366642    -0.37300
N154        N  0.04415355  0.30243983  0.23941107    -0.37300
C155        C  0.32137888  0.41208830  0.33922100    -0.03900
C156        C  0.35745233  0.45751566  0.34722936    -0.01100
C157        C  0.40113629  0.47758558  0.33101065     0.03900
C158        C  0.40919887  0.45285506  0.30584407    -0.03900
C159        C  0.37367962  0.40611971  0.29947235    -0.01000
C160        C  0.32982462  0.38652501  0.31531657     0.03900
C161        C  0.34901439  0.48455357  0.37148847     0.38600
C162        C  0.38234893  0.37656043  0.27793477     0.38600
C163        C  0.29380068  0.33910096  0.30780294     0.37000
C164        C  0.43678731  0.02426274  0.34019025     0.37000
N165        N  0.26504159  0.30133813  0.30178820    -0.37800
N166        N  0.46400762  0.06133583  0.34886421    -0.37800
N167        N  0.38722169  0.35147485  0.26085563    -0.37300
N168        N  0.34224273  0.00612605  0.39075475    -0.37300
C169        C  0.04859878  0.09601138  0.30389192    -0.03900
C170        C  0.08254141  0.10508810  0.32848535    -0.01100
C171        C  0.10590888  0.14882238  0.34447842     0.03900
C172        C  0.09434266  0.18352996  0.33751466    -0.03900
C173        C  0.05920734  0.17417443  0.31430508    -0.01000
C174        C  0.03638465  0.13087027  0.29769460     0.03900
C175        C  0.09519212  0.07052904  0.33725111     0.38600
C176        C  0.04492139  0.20848112  0.30861935     0.38600
C177        C  0.99894052  0.12236764  0.27533794     0.37000
C178        C  0.14334087  0.15879981  0.36749383     0.37000
N179        N  0.46989950  0.11809995  0.25746280    -0.37800
N180        N  0.17335025  0.16694027  0.38568815    -0.37800
N181        N  0.03341274  0.23576568  0.30429644    -0.37300
N182        N  0.10669667  0.04447203  0.34563679    -0.37300
C183        C  0.05224951  0.45709681  0.30549953    -0.03900
C184        C  0.09804241  0.46612367  0.29780186    -0.01100
C185        C  0.11720267  0.44159409  0.31370490     0.03900
C186        C  0.09283757  0.41039833  0.33942810    -0.03900
C187        C  0.04873612  0.40365115  0.34887528    -0.01000
C188        C  0.02855686  0.42664146  0.33212673     0.03900
C189        C  0.12709814  0.00199736  0.27448831     0.38600
C190        C  0.02286912  0.37128227  0.37517718     0.38600
C191        C  0.48244430  0.41670746  0.34212022     0.37000
C192        C  0.16288438  0.44954842  0.30405675     0.37000
N193        N  0.44584997  0.40753688  0.35157737    -0.37800
N194        N  0.19914322  0.95557339  0.29627603    -0.37800
N195        N  0.50225700  0.34556944  0.39613825    -0.37300
N196        N  0.15175007  0.02980459  0.25587817    -0.37300
C197        C  0.26502134  0.03141516  0.54588548    -0.03900
C198        C  0.24768435  0.04061600  0.51678050    -0.01100
C199        C  0.23280334  0.50876099  0.49054837     0.03900
C200        C  0.23567073  0.46785217  0.49309968    -0.03900
C201        C  0.25241212  0.45834894  0.52236416    -0.01000
C202        C  0.26744368  0.99028411  0.54856376     0.03900
C203        C  0.24707359  0.08389998  0.51312684     0.38600
C204        C  0.25196540  0.41456771  0.52623788     0.38600
C205        C  0.28423212  0.98018929  0.57861081     0.37000
C206        C  0.21551804  0.51864658  0.46064429     0.37000
N207        N  0.29765102  0.97214952  0.60255624    -0.37800
N208        N  0.20160753  0.52644085  0.43683654    -0.37800
N209        N  0.25129743  0.37953800  0.52935059    -0.37300
N210        N  0.24670475  0.11843258  0.51015110    -0.37300
C211        C  0.03306831  0.26703503  0.49203765    -0.03900
C212        C  0.99128118  0.22387561  0.48961421    -0.01100
C213        C  0.45945643  0.20765156  0.51596643     0.03900
C214        C  0.46967961  0.23414657  0.54518047    -0.03900
C215        C  0.51133037  0.27748417  0.54750097    -0.01000
C216        C  0.04301813  0.29383979  0.52107469     0.03900
C217        C  0.98028043  0.19684228  0.45960031     0.38600
C218        C  0.52220266  0.30480306  0.57737024     0.38600
C219        C  0.08678275  0.33753761  0.52436356     0.37000
C220        C  0.41504386  0.16474730  0.51228314     0.37000
N221        N  0.12166794  0.37232840  0.52697095    -0.37800
N222        N  0.37952876  0.13071736  0.50930889    -0.37800
N223        N  0.53094989  0.32668547  0.60114422    -0.37300
N224        N  0.97147140  0.17528454  0.43566646    -0.37300
C225        C  0.26828260  0.23457693  0.54424657    -0.03900
C226        C  0.29604847  0.25311696  0.51574111    -0.01100
C227        C  0.27961219  0.26808663  0.48918386     0.03900
C228        C  0.23513991  0.26405954  0.49078951    -0.03900
C229        C  0.20711653  0.24486729  0.51910144    -0.01000
C230        C  0.22347398  0.22977248  0.54557509     0.03900
C231        C  0.34054471  0.25455951  0.51292133     0.38600
C232        C  0.16218540  0.24254194  0.52178289     0.38600
C233        C  0.19438929  0.21007053  0.57443812     0.37000
C234        C  0.30795452  0.28637947  0.45985201     0.37000
N235        N  0.17102839  0.19413077  0.59733932    -0.37800
N236        N  0.33061011  0.30093280  0.43649111    -0.37800
N237        N  0.12645473  0.24080556  0.52393857    -0.37300
N238        N  0.37585936  0.25544847  0.51059847    -0.37300
C239        C  0.40891355  0.09036339  0.69880521    -0.03900
C240        C  0.38385731  0.05769283  0.72362723    -0.01100
C241        C  0.40391808  0.03452528  0.74034192     0.03900
C242        C  0.45035178  0.04485425  0.73330452    -0.03900
C243        C  0.47445022  0.07633867  0.70727692    -0.01000
C244        C  0.45406511  0.09909357  0.69049065     0.03900
C245        C  0.33639500  0.04637800  0.73112889     0.38600
C246        C  0.52124991  0.08768568  0.69804237     0.38600
C247        C  0.48062574  0.13312488  0.66522714     0.37000
C248        C  0.37523497  0.99881220  0.76386941     0.37000
N249        N  0.50176604  0.16022304  0.64511079    -0.37800
N250        N  0.35092225  0.97120895  0.78272221    -0.37800
N251        N  0.55846257  0.09819525  0.68919046    -0.37300
N252        N  0.29853689  0.03729583  0.73704954    -0.37300
C253        C  0.18112561  0.09073769  0.69848516    -0.03900
C254        C  0.17274964  0.11615634  0.72253816    -0.01100
C255        C  0.12924576  0.09614527  0.73897290     0.03900
C256        C  0.09373482  0.04932210  0.73268258    -0.03900
C257        C  0.10174112  0.02476140  0.70734074    -0.01000
C258        C  0.14518511  0.04512508  0.69073958     0.03900
C259        C  0.20843262  0.16391557  0.72951364     0.38600
C260        C  0.06636071  0.97783804  0.69845594     0.38600
C261        C  0.15352939  0.01817736  0.66634476     0.37000
C262        C  0.12097606  0.12543657  0.76104786     0.37000
N263        N  0.16020686  0.99665807  0.64697611    -0.37800
N264        N  0.11661489  0.15043243  0.77855415    -0.37800
N265        N  0.03944338  0.94052827  0.69002371    -0.37300
N266        N  0.23689521  0.20198337  0.73502518    -0.37300
C267        C  0.40942877  0.31886522  0.69961516    -0.03900
C268        C  0.39935923  0.35445559  0.69186284    -0.01100
C269        C  0.42179907  0.39762618  0.70867223     0.03900
C270        C  0.45448834  0.40595869  0.73405740    -0.03900
C271        C  0.46591723  0.37063599  0.74065251    -0.01000
C272        C  0.44289870  0.32728675  0.72404810     0.03900
C273        C  0.36435956  0.34606448  0.66712915     0.38600
C274        C  0.00297596  0.37884944  0.76332345     0.38600
C275        C  0.45520809  0.29188033  0.73121309     0.37000
C276        C  0.40918844  0.43226886  0.70005948     0.37000
N277        N  0.46505342  0.26367282  0.73688186    -0.37800
N278        N  0.39765233  0.45838786  0.69189577    -0.37800
N279        N  0.03187557  0.38318408  0.78136835    -0.37300
N280        N  0.33645060  0.33937027  0.64745073    -0.37300
C281        C  0.47138069  0.23983617  0.99141163    -0.03900
C282        C  0.46626953  0.26300865  0.01897037    -0.01100
C283        C  0.49610126  0.27382080  0.04618252     0.03900
C284        C  0.03083235  0.26109110  0.04617260    -0.03900
C285        C  0.03526116  0.23704417  0.01891130    -0.01000
C286        C  0.00595529  0.22692636  0.99147298     0.03900
C287        C  0.43004819  0.27563354  0.01945046     0.38600
C288        C  0.06923452  0.22146399  0.01944812     0.38600
C289        C  0.00974354  0.20097247  0.96411520     0.37000
C290        C  0.49194105  0.29936317  0.07365863     0.37000
N291        N  0.01263256  0.18019420  0.94232161    -0.37800
N292        N  0.48860292  0.31969409  0.09557067    -0.37800
N293        N  0.09623864  0.20898341  0.01991042    -0.37300
N294        N  0.40089332  0.28524656  0.01997374    -0.37300
C295        C  0.23389152  0.47165778  0.04660491    -0.03900
C296        C  0.20278214  0.46877189  0.02162889    -0.01100
C297        C  0.22003796  0.49604468  0.99310993     0.03900
C298        C  0.26846139  0.02591013  0.98932385    -0.03900
C299        C  0.29960346  0.02809386  0.01400114    -0.01000
C300        C  0.28228433  0.50171884  0.04287902     0.03900
C301        C  0.15279135  0.43796526  0.02552945     0.38600
C302        C  0.34969525  0.05722970  0.00936681     0.38600
C303        C  0.31431805  0.00464281  0.06834003     0.37000
C304        C  0.18790009  0.49470773  0.96830614     0.37000
N305        N  0.33986368  0.00724878  0.08873621    -0.37800
N306        N  0.16230071  0.49367775  0.94852098    -0.37800
N307        N  0.38957830  0.08030375  0.00547853    -0.37300
N308        N  0.11299469  0.41331691  0.02870558    -0.37300
C309        C  0.24419594  0.26840578  0.04948356    -0.03900
C310        C  0.22588989  0.21998290  0.04699774    -0.01100
C311        C  0.23385107  0.20123181  0.01842794     0.03900
C312        C  0.26107342  0.23099495  0.99257440    -0.03900
C313        C  0.28006045  0.27951450  0.99534968    -0.01000
C314        C  0.27188247  0.29820857  0.02384074     0.03900
C315        C  0.19751099  0.18934690  0.07329898     0.38600
C316        C  0.30924945  0.31033117  0.96940033     0.38600
C317        C  0.29229954  0.34834235  0.02698968     0.37000
C318        C  0.21320992  0.15107578  0.01530056     0.37000
N319        N  0.30857257  0.38827172  0.02957707    -0.37800
N320        N  0.19665523  0.11110879  0.01275235    -0.37800
N321        N  0.33242680  0.33483147  0.94865268    -0.37300
N322        N  0.17508245  0.16503267  0.09437401    -0.37300
C323        C  0.41321606  0.09385770  0.84350257    -0.03900
C324        C  0.40486135  0.04918118  0.85257931    -0.01100
C325        C  0.42666260  0.02804536  0.83554640     0.03900
C326        C  0.45729279  0.05120690  0.80887078    -0.03900
C327        C  0.46836595  0.09767110  0.80175860    -0.01000
C328        C  0.44539162  0.11807047  0.81816265     0.03900
C329        C  0.37415171  0.02484575  0.88001847     0.38600
C330        C  0.00490914  0.12617881  0.77866431     0.38600
C331        C  0.45385960  0.16365684  0.80802605     0.37000
C332        C  0.41588378  0.48185284  0.84569237     0.37000
N333        N  0.96047647  0.19990497  0.79987252    -0.37800
N334        N  0.40617190  0.44534982  0.85547497    -0.37800
N335        N  0.03342476  0.15063051  0.76036573    -0.37300
N336        N  0.34962334  0.50537418  0.90180738    -0.37300
C337        C  0.18050867  0.08888739  0.84304888    -0.03900
C338        C  0.17203047  0.05541720  0.81855648    -0.01100
C339        C  0.12870459  0.03259778  0.80198571     0.03900
C340        C  0.09394025  0.04488891  0.80809490    -0.03900
C341        C  0.10206255  0.07727929  0.83357155    -0.01000
C342        C  0.14475490  0.09875957  0.85096047     0.03900
C343        C  0.20834506  0.04499744  0.80962792     0.38600
C344        C  0.06775736  0.09051959  0.84192851     0.38600
C345        C  0.15117472  0.13035986  0.87776167     0.37000
C346        C  0.12003664  0.49512793  0.77965627     0.37000
N347        N  0.15615357  0.15548304  0.89908741    -0.37800
N348        N  0.11532361  0.46582731  0.76195205    -0.37800
N349        N  0.04233515  0.10288849  0.85027439    -0.37300
N350        N  0.23723685  0.03665454  0.80249032    -0.37300
C351        C  0.45006839  0.40784817  0.80944985    -0.03900
C352        C  0.40280086  0.37340596  0.80341019    -0.01100
C353        C  0.38201836  0.33010996  0.81994320     0.03900
C354        C  0.40693196  0.32139172  0.84440672    -0.03900
C355        C  0.45243520  0.35723672  0.85271757    -0.01000
C356        C  0.47396081  0.39989044  0.83532040     0.03900
C357        C  0.37410431  0.38247719  0.78119554     0.38600
C358        C  0.47697446  0.35091294  0.88002034     0.38600
C359        C  0.02130946  0.43450656  0.84409523     0.37800
C360        C  0.33513545  0.29408956  0.81095699     0.37000
N361        N  0.05891942  0.46069270  0.85253255    -0.37800
N362        N  0.29778072  0.26551910  0.80366350    -0.37800
N363        N  0.99643545  0.34591466  0.90183813    -0.37300
N364        N  0.34962160  0.38765352  0.76362371    -0.37300
Zn365      Zn  0.30164844  0.60160019  0.89587704     1.49700
Zn366      Zn  0.39875039  0.70137594  0.89643880     1.49400
Zn367      Zn  0.29950017  0.69878346  0.89710550     1.49100
Zn368      Zn  0.33271411  0.66496500  0.95723364     1.49500
O369        O  0.33321933  0.66678695  0.91048831    -1.82700
O370        O  0.34649023  0.59084272  0.86867382    -0.73400
O371        O  0.40990039  0.75743938  0.86931032    -0.73200
O372        O  0.24372986  0.65474778  0.86956566    -0.72700
O373        O  0.41363647  0.65834074  0.87030020    -0.73400
O374        O  0.24441897  0.58794425  0.86972168    -0.73000
O375        O  0.34244795  0.75701407  0.87127003    -0.73600
O376        O  0.29883486  0.69124727  0.97711804    -0.72900
O377        O  0.44377683  0.72583244  0.93555896    -0.73700
O378        O  0.27572475  0.71927830  0.93654168    -0.73100
O379        O  0.39331484  0.69831200  0.97655489    -0.73600
O380        O  0.30619984  0.60397747  0.97563304    -0.73500
O381        O  0.27975712  0.55484277  0.93391818    -0.73300
C382        C  0.38973839  0.61570810  0.86153264     0.78500
C383        C  0.38508385  0.77589781  0.86236508     0.79000
C384        C  0.22559281  0.61191700  0.86152114     0.78000
C385        C  0.27862877  0.71246831  0.96700778     0.78400
C386        C  0.43460528  0.72096628  0.96615915     0.79500
C387        C  0.28583739  0.56307926  0.96457098     0.78500
Zn388      Zn  0.33363178  0.66696077  0.67737080     1.49700
Zn389      Zn  0.27021597  0.63553573  0.61214900     1.49400
Zn390      Zn  0.36696875  0.73127674  0.61240360     1.49100
Zn391      Zn  0.36556677  0.63499428  0.61207158     1.49500
O392        O  0.33414765  0.66726569  0.62903943    -1.82700
O393        O  0.26526367  0.63305611  0.69401453    -0.73400
O394        O  0.25895153  0.67640528  0.58219786    -0.73200
O395        O  0.38935932  0.77779828  0.64902963    -0.72700
O396        O  0.22290430  0.61176069  0.64820079    -0.73400
O397        O  0.36811957  0.73493943  0.69458976    -0.73000
O398        O  0.32649832  0.74295976  0.58209261    -0.73600
O399        O  0.41830099  0.67562557  0.58215673    -0.72900
O400        O  0.25779874  0.58262590  0.58274275    -0.73700
O401        O  0.42077021  0.74370352  0.58323105    -0.73100
O402        O  0.32431162  0.58164088  0.58283781    -0.73600
O403        O  0.38876522  0.61172487  0.64848370    -0.73500
O404        O  0.36688165  0.63225037  0.69423798    -0.73300
C405        C  0.22567945  0.61303999  0.67934254     0.78500
C406        C  0.28517547  0.71742230  0.57146552     0.79000
C407        C  0.38768765  0.77462379  0.68017728     0.78000
C408        C  0.43514715  0.71728806  0.57218908     0.78400
C409        C  0.28298880  0.56640398  0.57244151     0.79500
C410        C  0.38691372  0.61276216  0.67962442     0.78500
C411        C  0.99949348  0.50001746  0.73902911     0.46900
H412        H  0.99901526  0.49949108  0.71181995    -0.02200
C413        C  0.00054605  0.00110487  0.80268936     0.46900
H414        H  0.00126112  0.00163724  0.82987953    -0.02200
C415        C  0.04971015  0.52559420  0.75354548    -0.15900
C416        C  0.47440497  0.52483323  0.75398529    -0.15600
C417        C  0.47510658  0.95042439  0.75435820    -0.16000
C418        C  0.05002894  0.52500990  0.78744315    -0.16000
C419        C  0.47620073  0.52649730  0.78790285    -0.15500
C420        C  0.47458694  0.95115782  0.78825671    -0.15900
Zn421      Zn  0.13606524  0.77005464  0.42477392     1.49700
Zn422      Zn  0.16911177  0.83477636  0.36022497     1.49400
Zn423      Zn  0.13710058  0.86591552  0.42548990     1.49100
Zn424      Zn  0.23265508  0.86559624  0.42559895     1.49500
O425        O  0.16881283  0.83404682  0.40849430    -1.82700
O426        O  0.11368363  0.72407108  0.38807472    -0.73400
O427        O  0.13475099  0.86836909  0.34365813    -0.73200
O428        O  0.08421664  0.82518604  0.45492335    -0.72700
O429        O  0.13553859  0.76724552  0.34265724    -0.73400
O430        O  0.08252436  0.75748214  0.45442541    -0.73000
O431        O  0.11375783  0.88937900  0.38952859    -0.73600
O432        O  0.24399251  0.91718912  0.45623536    -0.72900
O433        O  0.23731393  0.86951305  0.34359166    -0.73700
O434        O  0.17771229  0.91862966  0.45510405    -0.73100
O435        O  0.27965923  0.89088078  0.38944042    -0.73600
O436        O  0.24496517  0.82378537  0.45403611    -0.73500
O437        O  0.17701659  0.75767869  0.45379664    -0.73300
C438        C  0.11583842  0.72753440  0.35697549     0.78500
C439        C  0.11491768  0.88793363  0.35840538     0.79000
C440        C  0.06772606  0.78372598  0.46514320     0.78000
C441        C  0.21857189  0.93334799  0.46623011     0.78400
C442        C  0.27685546  0.88976677  0.35829919     0.79500
C443        C  0.21857770  0.78244073  0.46415850     0.78500
Zn444      Zn  0.20228908  0.80241134  0.14260355     1.49700
Zn445      Zn  0.20028947  0.89949103  0.14164391     1.49400
Zn446      Zn  0.16972504  0.83354349  0.08097569     1.49100
Zn447      Zn  0.10294269  0.79992562  0.14131668     1.49500
O448        O  0.16878133  0.83396532  0.12776276    -1.82700
O449        O  0.25744137  0.84649644  0.17047636    -0.73400
O450        O  0.22168679  0.94466489  0.10255426    -0.73200
O451        O  0.20393988  0.80643369  0.06277135    -0.72700
O452        O  0.25813497  0.91391986  0.16801125    -0.73400
O453        O  0.22778800  0.78136589  0.10470266    -0.73000
O454        O  0.19716737  0.89408062  0.06160813    -0.73600
O455        O  0.05838618  0.77655587  0.10200484    -0.72900
O456        O  0.15493517  0.91056970  0.16853182    -0.73700
O457        O  0.10911621  0.80020167  0.06116388    -0.73100
O458        O  0.08811745  0.84265198  0.16765824    -0.73600
O459        O  0.09057612  0.74347295  0.16827703    -0.73500
O460        O  0.15836054  0.74457060  0.16790651    -0.73300
C461        C  0.27635208  0.88977042  0.17732472     0.78500
C462        C  0.21661733  0.93533067  0.07199058     0.79000
C463        C  0.22499844  0.78664283  0.07401423     0.78000
C464        C  0.06766099  0.77967206  0.07145388     0.78400
C465        C  0.11180295  0.88540272  0.17608937     0.79500
C466        C  0.11540947  0.72533661  0.17598629     0.78500
C467        C  0.00194128  0.50024833  0.23575354     0.46900
H468        H  0.00112776  0.49953486  0.20856951    -0.02200
C469        C  0.00334841  0.50203442  0.29941825     0.46900
H470        H  0.00406786  0.50305036  0.32660772    -0.02200
C471        C  0.45253163  0.97658158  0.25108457    -0.15900
C472        C  0.02638126  0.97498282  0.25069697    -0.15600
C473        C  0.02788245  0.55028360  0.24997853    -0.16000
C474        C  0.45309653  0.97637841  0.28497897    -0.16000
C475        C  0.02827382  0.97698904  0.28463735    -0.15500
C476        C  0.02767892  0.55137228  0.28384437    -0.15900
C477        C  0.05174818  0.59341324  0.22869212    -0.03900
C478        C  0.02711134  0.60129308  0.20334237    -0.01100
C479        C  0.04784592  0.64417691  0.18626509     0.03900
C480        C  0.09359315  0.68001349  0.19408826    -0.03900
C481        C  0.11915537  0.67135003  0.21808295    -0.01000
C482        C  0.09899154  0.62801547  0.23442623     0.03900
C483        C  0.47986221  0.56629652  0.19468476     0.38600
C484        C  0.16613001  0.70748361  0.22682157     0.38600
C485        C  0.12836187  0.61904780  0.25603929     0.37000
C486        C  0.02203164  0.65074027  0.15995882     0.37000
N487        N  0.15349024  0.61408428  0.27307874    -0.37800
N488        N  0.00130834  0.65578172  0.13903853    -0.37800
N489        N  0.20356374  0.73619920  0.23381357    -0.37300
N490        N  0.44235873  0.53993478  0.18615911    -0.37300
C491        C  0.40842397  0.95665635  0.23054106    -0.03900
C492        C  0.37392122  0.96940375  0.23646694    -0.01100
C493        C  0.33072560  0.94710060  0.21965923     0.03900
C494        C  0.32165492  0.91290519  0.19564922    -0.03900
C495        C  0.35693380  0.90210823  0.18818744    -0.01000
C496        C  0.39990396  0.92384955  0.20529466     0.03900
C497        C  0.38269542  0.00682376  0.25885949     0.38600
C498        C  0.34969463  0.86916330  0.16217294     0.38600
C499        C  0.43422587  0.91065698  0.19683528     0.37000
C500        C  0.29512794  0.95887457  0.22778536     0.37000
N501        N  0.45983994  0.89853361  0.18847410    -0.37800
N502        N  0.26683652  0.96837450  0.23421901    -0.37800
N503        N  0.34404736  0.84288406  0.14152721    -0.37300
N504        N  0.38729692  0.03597647  0.27666706    -0.37300
C505        C  0.08814203  0.90695610  0.19425488    -0.03900
C506        C  0.05751051  0.88343025  0.22051467    -0.01100
C507        C  0.03462670  0.90381866  0.23711393     0.03900
C508        C  0.04520850  0.95009878  0.22974467    -0.03900
C509        C  0.07475080  0.97270030  0.20244176    -0.01000
C510        C  0.09474940  0.95064819  0.18438023     0.03900
C511        C  0.05003801  0.83833720  0.23101669     0.38600
C512        C  0.08667689  0.01941462  0.19285607     0.38600
C513        C  0.12060178  0.97223352  0.15452431     0.37000
C514        C  0.49881600  0.87556560  0.26074299     0.37000
N515        N  0.14065958  0.98906538  0.13050977    -0.37800
N516        N  0.47085394  0.85147207  0.27949328    -0.37800
N517        N  0.09756196  0.55648471  0.18366660    -0.37300
N518        N  0.04415370  0.80243996  0.23941126    -0.37300
C519        C  0.32137898  0.91208835  0.33922102    -0.03900
C520        C  0.35745243  0.95751571  0.34722936    -0.01100
C521        C  0.40113637  0.97758566  0.33101063     0.03900
C522        C  0.40919892  0.95285512  0.30584407    -0.03900
C523        C  0.37367966  0.90611975  0.29947236    -0.01000
C524        C  0.32982467  0.88652506  0.31531657     0.03900
C525        C  0.34901452  0.98455361  0.37148849     0.38600
C526        C  0.38234888  0.87656041  0.27793475     0.38600
C527        C  0.29380065  0.83910098  0.30780293     0.37000
C528        C  0.43678720  0.52426268  0.34019024     0.37000
N529        N  0.26504152  0.80133820  0.30178823    -0.37800
N530        N  0.46400742  0.56133578  0.34886421    -0.37800
N531        N  0.38722148  0.85147475  0.26085562    -0.37300
N532        N  0.34224253  0.50612598  0.39075474    -0.37300
C533        C  0.04859867  0.59601133  0.30389195    -0.03900
C534        C  0.08254131  0.60508804  0.32848536    -0.01100
C535        C  0.10590881  0.64882231  0.34447844     0.03900
C536        C  0.09434258  0.68352988  0.33751466    -0.03900
C537        C  0.05920724  0.67417437  0.31430510    -0.01000
C538        C  0.03638454  0.63087021  0.29769462     0.03900
C539        C  0.09519205  0.57052905  0.33725108     0.38600
C540        C  0.04492121  0.70848102  0.30861944     0.38600
C541        C  0.99894046  0.62236757  0.27533795     0.37000
C542        C  0.14334075  0.65879971  0.36749388     0.37000
N543        N  0.46989947  0.61809986  0.25746276    -0.37800
N544        N  0.17335014  0.66694019  0.38568825    -0.37800
N545        N  0.03341251  0.73576558  0.30429666    -0.37300
N546        N  0.10669670  0.54447211  0.34563683    -0.37300
C547        C  0.05224944  0.95709673  0.30549950    -0.03900
C548        C  0.09804232  0.96612356  0.29780180    -0.01100
C549        C  0.11720255  0.94159396  0.31370482     0.03900
C550        C  0.09283746  0.91039827  0.33942807    -0.03900
C551        C  0.04873600  0.90365107  0.34887526    -0.01000
C552        C  0.02855675  0.92664138  0.33212670     0.03900
C553        C  0.12709816  0.50199743  0.27448834     0.38600
C554        C  0.02286899  0.87128219  0.37517718     0.38600
C555        C  0.48244423  0.91670746  0.34212021     0.37000
C556        C  0.16288423  0.94954828  0.30405665     0.37000
N557        N  0.44584995  0.90753709  0.35157737    -0.37800
N558        N  0.19914332  0.45557348  0.29627609    -0.37800
N559        N  0.50225679  0.84556936  0.39613823    -0.37300
N560        N  0.15174994  0.52980472  0.25587820    -0.37300
C561        C  0.26502128  0.53141511  0.54588548    -0.03900
C562        C  0.24768448  0.54061605  0.51678046    -0.01100
C563        C  0.23280328  0.00876099  0.49054839     0.03900
C564        C  0.23567086  0.96785226  0.49309964    -0.03900
C565        C  0.25241228  0.95834904  0.52236411    -0.01000
C566        C  0.26744353  0.49028402  0.54856380     0.03900
C567        C  0.24707378  0.58390006  0.51312680     0.38600
C568        C  0.25196555  0.91456782  0.52623785     0.38600
C569        C  0.28423210  0.48018931  0.57861082     0.37000
C570        C  0.21551803  0.01864662  0.46064431     0.37000
N571        N  0.29765117  0.47214964  0.60255619    -0.37800
N572        N  0.20160768  0.02644096  0.43683649    -0.37800
N573        N  0.25129765  0.87953812  0.52935060    -0.37300
N574        N  0.24670486  0.61843264  0.51015109    -0.37300
C575        C  0.03306821  0.76703511  0.49203763    -0.03900
C576        C  0.99128116  0.72387566  0.48961422    -0.01100
C577        C  0.45945642  0.70765166  0.51596644     0.03900
C578        C  0.46967965  0.73414659  0.54518052    -0.03900
C579        C  0.51133034  0.77748425  0.54750101    -0.01000
C580        C  0.04301800  0.79383993  0.52107467     0.03900
C581        C  0.98028035  0.69684226  0.45960031     0.38600
C582        C  0.52220275  0.80480309  0.57737033     0.38600
C583        C  0.08678269  0.83753766  0.52436355     0.37000
C584        C  0.41504386  0.66474745  0.51228315     0.37000
N585        N  0.12166799  0.87232831  0.52697096    -0.37800
N586        N  0.37952874  0.63071758  0.50930889    -0.37800
N587        N  0.53095013  0.82668564  0.60114426    -0.37300
N588        N  0.97147118  0.67528447  0.43566649    -0.37300
C589        C  0.26828254  0.73457689  0.54424654    -0.03900
C590        C  0.29604841  0.75311701  0.51574110    -0.01100
C591        C  0.27961211  0.76808667  0.48918385     0.03900
C592        C  0.23513986  0.76405963  0.49078951    -0.03900
C593        C  0.20711647  0.74486735  0.51910142    -0.01000
C594        C  0.22347395  0.72977248  0.54557505     0.03900
C595        C  0.34054463  0.75455959  0.51292131     0.38600
C596        C  0.16218532  0.74254198  0.52178284     0.38600
C597        C  0.19438934  0.71007059  0.57443809     0.37000
C598        C  0.30795441  0.78637941  0.45985198     0.37000
N599        N  0.17102853  0.69413077  0.59733930    -0.37800
N600        N  0.33061011  0.80093268  0.43649113    -0.37800
N601        N  0.12645471  0.74080574  0.52393853    -0.37300
N602        N  0.37585933  0.75544866  0.51059846    -0.37300
C603        C  0.40891354  0.59036341  0.69880518    -0.03900
C604        C  0.38385735  0.55769290  0.72362725    -0.01100
C605        C  0.40391819  0.53452543  0.74034197     0.03900
C606        C  0.45035187  0.54485437  0.73330457    -0.03900
C607        C  0.47445023  0.57633866  0.70727689    -0.01000
C608        C  0.45406508  0.59909352  0.69049061     0.03900
C609        C  0.33639506  0.54637807  0.73112890     0.38600
C610        C  0.52124993  0.58768570  0.69804236     0.38600
C611        C  0.48062575  0.63312481  0.66522711     0.37000
C612        C  0.37523505  0.49881233  0.76386943     0.37000
N613        N  0.50176612  0.66022295  0.64511079    -0.37800
N614        N  0.35092225  0.47120907  0.78272218    -0.37800
N615        N  0.55846266  0.59819548  0.68919044    -0.37300
N616        N  0.29853694  0.53729599  0.73704956    -0.37300
C617        C  0.18112556  0.59073775  0.69848511    -0.03900
C618        C  0.17274964  0.61615636  0.72253814    -0.01100
C619        C  0.12924582  0.59614527  0.73897291     0.03900
C620        C  0.09373489  0.54932209  0.73268261    -0.03900
C621        C  0.10174113  0.52476141  0.70734073    -0.01000
C622        C  0.14518509  0.54512515  0.69073954     0.03900
C623        C  0.20843264  0.66391560  0.72951363     0.38600
C624        C  0.06636072  0.47783800  0.69845592     0.38600
C625        C  0.15352941  0.51817747  0.66634475     0.37000
C626        C  0.12097614  0.62543655  0.76104788     0.37000
N627        N  0.16020685  0.49665816  0.64697609    -0.37800
N628        N  0.11661496  0.65043238  0.77855419    -0.37800
N629        N  0.03944349  0.44052820  0.69002373    -0.37300
N630        N  0.23689530  0.70198334  0.73502519    -0.37300
C631        C  0.40942873  0.81886522  0.69961517    -0.03900
C632        C  0.39935911  0.85445559  0.69186289    -0.01100
C633        C  0.42179898  0.89762618  0.70867226     0.03900
C634        C  0.45448826  0.90595865  0.73405742    -0.03900
C635        C  0.46591714  0.87063594  0.74065253    -0.01000
C636        C  0.44289870  0.82728675  0.72404808     0.03900
C637        C  0.36435951  0.84606451  0.66712916     0.38600
C638        C  0.00297587  0.87884939  0.76332341     0.38600
C639        C  0.45520819  0.79188035  0.73121304     0.37000
C640        C  0.40918834  0.93226887  0.70005950     0.37000
N641        N  0.46505351  0.76367286  0.73688184    -0.37800
N642        N  0.39765214  0.95838782  0.69189577    -0.37800
N643        N  0.03187564  0.88318401  0.78136816    -0.37300
N644        N  0.33645059  0.83937022  0.64745067    -0.37300
C645        C  0.47138075  0.73983625  0.99141162    -0.03900
C646        C  0.46626956  0.76300877  0.01897034    -0.01100
C647        C  0.49610138  0.77382102  0.04618246     0.03900
C648        C  0.03083235  0.76109109  0.04617265    -0.03900
C649        C  0.03526123  0.73704425  0.01891131    -0.01000
C650        C  0.00595542  0.72692657  0.99147297     0.03900
C651        C  0.43004818  0.77563360  0.01945046     0.38600
C652        C  0.06923458  0.72146407  0.01944812     0.38600
C653        C  0.00974362  0.70097264  0.96411518     0.37000
C654        C  0.49194124  0.79936344  0.07365856     0.37000
N655        N  0.01263241  0.68019418  0.94232162    -0.37800
N656        N  0.48860318  0.81969433  0.09557065    -0.37800
N657        N  0.09623882  0.70898362  0.01991042    -0.37300
N658        N  0.40089340  0.78524678  0.01997374    -0.37300
C659        C  0.23389151  0.97165776  0.04660491    -0.03900
C660        C  0.20278214  0.96877185  0.02162889    -0.01100
C661        C  0.22003798  0.99604461  0.99310992     0.03900
C662        C  0.26846136  0.52591015  0.98932386    -0.03900
C663        C  0.29960343  0.52809382  0.01400112    -0.01000
C664        C  0.28228430  0.00171884  0.04287901     0.03900
C665        C  0.15279135  0.93796516  0.02552944     0.38600
C666        C  0.34969518  0.55722966  0.00936679     0.38600
C667        C  0.31431813  0.50464278  0.06834002     0.37000
C668        C  0.18790014  0.99470763  0.96830612     0.37000
N669        N  0.33986375  0.50724868  0.08873619    -0.37800
N670        N  0.16230077  0.99367766  0.94852096    -0.37800
N671        N  0.38957821  0.58030374  0.00547851    -0.37300
N672        N  0.11299470  0.91331677  0.02870558    -0.37300
C673        C  0.24419596  0.76840572  0.04948358    -0.03900
C674        C  0.22588979  0.71998283  0.04699771    -0.01100
C675        C  0.23385116  0.70123182  0.01842796     0.03900
C676        C  0.26107357  0.73099498  0.99257445    -0.03900
C677        C  0.28006054  0.77951452  0.99534973    -0.01000
C678        C  0.27188256  0.79820854  0.02384081     0.03900
C679        C  0.19751086  0.68934681  0.07329894     0.38600
C680        C  0.30924937  0.81033121  0.96940033     0.38600
C681        C  0.29229955  0.84834230  0.02698972     0.37000
C682        C  0.21321004  0.65107578  0.01530056     0.37000
N683        N  0.30857239  0.88827164  0.02957707    -0.37800
N684        N  0.19665537  0.61110884  0.01275235    -0.37800
N685        N  0.33242663  0.83483148  0.94865262    -0.37300
N686        N  0.17508247  0.66503256  0.09437403    -0.37300
C687        C  0.41321607  0.59385770  0.84350253    -0.03900
C688        C  0.40486130  0.54918116  0.85257927    -0.01100
C689        C  0.42666259  0.52804538  0.83554638     0.03900
C690        C  0.45729288  0.55120697  0.80887081    -0.03900
C691        C  0.46836606  0.59767116  0.80175862    -0.01000
C692        C  0.44539167  0.61807048  0.81816263     0.03900
C693        C  0.37415171  0.52484572  0.88001846     0.38600
C694        C  0.00490924  0.62617884  0.77866433     0.38600
C695        C  0.45385966  0.66365685  0.80802604     0.37000
C696        C  0.41588373  0.98185281  0.84569238     0.37000
N697        N  0.96047629  0.69990490  0.79987252    -0.37800
N698        N  0.40617173  0.94534973  0.85547496    -0.37800
N699        N  0.03342486  0.65063044  0.76036572    -0.37300
N700        N  0.34962326  0.00537428  0.90180736    -0.37300
C701        C  0.18050860  0.58888738  0.84304890    -0.03900
C702        C  0.17203040  0.55541714  0.81855651    -0.01100
C703        C  0.12870454  0.53259777  0.80198574     0.03900
C704        C  0.09394028  0.54488899  0.80809492    -0.03900
C705        C  0.10206259  0.57727939  0.83357155    -0.01000
C706        C  0.14475489  0.59875965  0.85096046     0.03900
C707        C  0.20834497  0.54499735  0.80962794     0.38600
C708        C  0.06775741  0.59051970  0.84192853     0.38600
C709        C  0.15117474  0.63035996  0.87776169     0.37000
C710        C  0.12003677  0.99512798  0.77965626     0.37000
N711        N  0.15615374  0.65548321  0.89908740    -0.37800
N712        N  0.11532382  0.96582740  0.76195200    -0.37800
N713        N  0.04233531  0.60288870  0.85027441    -0.37300
N714        N  0.23723674  0.53665443  0.80249030    -0.37300
C715        C  0.45006838  0.90784815  0.80944986    -0.03900
C716        C  0.40280089  0.87340593  0.80341018    -0.01100
C717        C  0.38201842  0.83010996  0.81994321     0.03900
C718        C  0.40693198  0.82139174  0.84440676    -0.03900
C719        C  0.45243525  0.85723670  0.85271757    -0.01000
C720        C  0.47396083  0.89989043  0.83532040     0.03900
C721        C  0.37410429  0.88247711  0.78119552     0.38600
C722        C  0.47697454  0.85091289  0.88002032     0.38600
C723        C  0.02130948  0.93450655  0.84409524     0.37800
C724        C  0.33513555  0.79408959  0.81095699     0.37000
N725        N  0.05891944  0.96069260  0.85253255    -0.37800
N726        N  0.29778080  0.76551918  0.80366346    -0.37800
N727        N  0.99643533  0.84591455  0.90183818    -0.37300
N728        N  0.34962150  0.88765340  0.76362376    -0.37300
Zn729      Zn  0.80164843  0.10160029  0.89587705     1.49700
Zn730      Zn  0.89875038  0.20137601  0.89643879     1.49400
Zn731      Zn  0.79950016  0.19878352  0.89710550     1.49100
Zn732      Zn  0.83271408  0.16496504  0.95723365     1.49500
O733        O  0.83321935  0.16678704  0.91048831    -1.82700
O734        O  0.84649014  0.09084273  0.86867381    -0.73400
O735        O  0.90990052  0.25743944  0.86931028    -0.73200
O736        O  0.74372985  0.15474784  0.86956566    -0.72700
O737        O  0.91363638  0.15834075  0.87030019    -0.73400
O738        O  0.74441908  0.08794439  0.86972164    -0.73000
O739        O  0.84244805  0.25701406  0.87127003    -0.73600
O740        O  0.79883478  0.19124726  0.97711804    -0.72900
O741        O  0.94377675  0.22583247  0.93555897    -0.73700
O742        O  0.77572470  0.21927832  0.93654169    -0.73100
O743        O  0.89331476  0.19831203  0.97655491    -0.73600
O744        O  0.80619995  0.10397750  0.97563304    -0.73500
O745        O  0.77975698  0.05484281  0.93391818    -0.73300
C746        C  0.88973831  0.11570811  0.86153263     0.78500
C747        C  0.88508394  0.27589782  0.86236504     0.79000
C748        C  0.72559286  0.11191708  0.86152112     0.78000
C749        C  0.77862867  0.21246827  0.96700778     0.78400
C750        C  0.93460520  0.22096629  0.96615916     0.79500
C751        C  0.78583737  0.06307928  0.96457098     0.78500
Zn752      Zn  0.83363195  0.16696082  0.67737078     1.49700
Zn753      Zn  0.77021593  0.13553582  0.61214899     1.49400
Zn754      Zn  0.86696885  0.23127683  0.61240361     1.49100
Zn755      Zn  0.86556687  0.13499435  0.61207161     1.49500
O756        O  0.83414770  0.16726575  0.62903942    -1.82700
O757        O  0.76526379  0.13305612  0.69401451    -0.73400
O758        O  0.75895149  0.17640537  0.58219787    -0.73200
O759        O  0.88935945  0.27779832  0.64902964    -0.72700
O760        O  0.72290431  0.11176079  0.64820081    -0.73400
O761        O  0.86811968  0.23493944  0.69458975    -0.73000
O762        O  0.82649833  0.24295983  0.58209266    -0.73600
O763        O  0.91830096  0.17562565  0.58215673    -0.72900
O764        O  0.75779875  0.08262597  0.58274274    -0.73700
O765        O  0.92077022  0.24370363  0.58323101    -0.73100
O766        O  0.82431167  0.08164100  0.58283783    -0.73600
O767        O  0.88876526  0.11172474  0.64848371    -0.73500
O768        O  0.86688187  0.13225050  0.69423795    -0.73300
C769        C  0.72567952  0.11304000  0.67934256     0.78500
C770        C  0.78517548  0.21742239  0.57146556     0.79000
C771        C  0.88768775  0.27462380  0.68017729     0.78000
C772        C  0.93514710  0.21728812  0.57218903     0.78400
C773        C  0.78298885  0.06640408  0.57244151     0.79500
C774        C  0.88691381  0.11276213  0.67962442     0.78500
C775        C  0.49949336  0.00001734  0.73902910     0.46900
H776        H  0.49901515  0.99949095  0.71181995    -0.02200
C777        C  0.50054611  0.50110492  0.80268935     0.46900
H778        H  0.50126118  0.50163731  0.82987953    -0.02200
C779        C  0.54971006  0.02559412  0.75354546    -0.15900
C780        C  0.97440483  0.02483310  0.75398528    -0.15600
C781        C  0.97510667  0.45042449  0.75435820    -0.16000
C782        C  0.55002886  0.02500976  0.78744314    -0.16000
C783        C  0.97620065  0.02649723  0.78790284    -0.15500
C784        C  0.97458703  0.45115793  0.78825671    -0.15900
Zn785      Zn  0.63606542  0.27005474  0.42477391     1.49700
Zn786      Zn  0.66911181  0.33477637  0.36022498     1.49400
Zn787      Zn  0.63710055  0.36591557  0.42548990     1.49100
Zn788      Zn  0.73265505  0.36559631  0.42559895     1.49500
O789        O  0.66881282  0.33404690  0.40849431    -1.82700
O790        O  0.61368383  0.22407117  0.38807472    -0.73400
O791        O  0.63475094  0.36836900  0.34365813    -0.73200
O792        O  0.58421675  0.32518606  0.45492339    -0.72700
O793        O  0.63553854  0.26724560  0.34265725    -0.73400
O794        O  0.58252457  0.25748220  0.45442540    -0.73000
O795        O  0.61375774  0.38937889  0.38952858    -0.73600
O796        O  0.74399249  0.41718915  0.45623537    -0.72900
O797        O  0.73731387  0.36951294  0.34359164    -0.73700
O798        O  0.67771226  0.41862968  0.45510403    -0.73100
O799        O  0.77965914  0.39088090  0.38944041    -0.73600
O800        O  0.74496532  0.32378544  0.45403608    -0.73500
O801        O  0.67701672  0.25767883  0.45379668    -0.73300
C802        C  0.61583848  0.22753448  0.35697548     0.78500
C803        C  0.61491763  0.38793356  0.35840537     0.79000
C804        C  0.56772622  0.28372599  0.46514321     0.78000
C805        C  0.71857185  0.43334800  0.46623013     0.78400
C806        C  0.77685538  0.38976677  0.35829917     0.79500
C807        C  0.71857785  0.28244082  0.46415852     0.78500
Zn808      Zn  0.70228903  0.30241142  0.14260356     1.49700
Zn809      Zn  0.70028943  0.39949110  0.14164390     1.49400
Zn810      Zn  0.66972491  0.33354342  0.08097570     1.49100
Zn811      Zn  0.60294254  0.29992550  0.14131667     1.49500
O812        O  0.66878120  0.33396533  0.12776277    -1.82700
O813        O  0.75744132  0.34649650  0.17047637    -0.73400
O814        O  0.72168673  0.44466500  0.10255424    -0.73200
O815        O  0.70393980  0.30643373  0.06277133    -0.72700
O816        O  0.75813505  0.41391998  0.16801121    -0.73400
O817        O  0.72778794  0.28136598  0.10470266    -0.73000
O818        O  0.69716727  0.39408064  0.06160817    -0.73600
O819        O  0.55838606  0.27655568  0.10200482    -0.72900
O820        O  0.65493509  0.41056960  0.16853183    -0.73700
O821        O  0.60911616  0.30020174  0.06116390    -0.73100
O822        O  0.58811730  0.34265190  0.16765823    -0.73600
O823        O  0.59057616  0.24347296  0.16827704    -0.73500
O824        O  0.65836058  0.24457063  0.16790652    -0.73300
C825        C  0.77635211  0.38977050  0.17732470     0.78500
C826        C  0.71661727  0.43533072  0.07199056     0.79000
C827        C  0.72499838  0.28664289  0.07401422     0.78000
C828        C  0.56766092  0.27967205  0.07145387     0.78400
C829        C  0.61180286  0.38540264  0.17608936     0.79500
C830        C  0.61540950  0.22533662  0.17598629     0.78500
C831        C  0.50194126  0.00024837  0.23575353     0.46900
H832        H  0.50112771  0.99953491  0.20856950    -0.02200
C833        C  0.50334845  0.00203450  0.29941824     0.46900
H834        H  0.50406793  0.00305046  0.32660772    -0.02200
C835        C  0.95253164  0.47658151  0.25108457    -0.15900
C836        C  0.52638130  0.47498288  0.25069699    -0.15600
C837        C  0.52788245  0.05028363  0.24997852    -0.16000
C838        C  0.95309650  0.47637830  0.28497897    -0.16000
C839        C  0.52827384  0.47698908  0.28463737    -0.15500
C840        C  0.52767901  0.05137234  0.28384436    -0.15900
C841        C  0.55174812  0.09341325  0.22869212    -0.03900
C842        C  0.52711127  0.10129312  0.20334240    -0.01100
C843        C  0.54784590  0.14417695  0.18626511     0.03900
C844        C  0.59359315  0.18001350  0.19408824    -0.03900
C845        C  0.61915529  0.17135002  0.21808295    -0.01000
C846        C  0.59899145  0.12801550  0.23442625     0.03900
C847        C  0.97986217  0.06629656  0.19468478     0.38600
C848        C  0.66612986  0.20748355  0.22682157     0.38600
C849        C  0.62836185  0.11904784  0.25603924     0.37000
C850        C  0.52203170  0.15074026  0.15995879     0.37000
N851        N  0.65349041  0.11408436  0.27307853    -0.37800
N852        N  0.50130837  0.15578153  0.13903845    -0.37800
N853        N  0.70356362  0.23619908  0.23381360    -0.37300
N854        N  0.94235865  0.03993488  0.18615913    -0.37300
C855        C  0.90842399  0.45665636  0.23054105    -0.03900
C856        C  0.87392123  0.46940376  0.23646694    -0.01100
C857        C  0.83072563  0.44710066  0.21965920     0.03900
C858        C  0.82165495  0.41290520  0.19564922    -0.03900
C859        C  0.85693381  0.40210815  0.18818749    -0.01000
C860        C  0.89990401  0.42384956  0.20529466     0.03900
C861        C  0.88269546  0.50682380  0.25885944     0.38600
C862        C  0.84969462  0.36916320  0.16217300     0.38600
C863        C  0.93422595  0.41065705  0.19683527     0.37000
C864        C  0.79512790  0.45887457  0.22778535     0.37000
N865        N  0.95984002  0.39853366  0.18847407    -0.37800
N866        N  0.76683632  0.46837429  0.23421901    -0.37800
N867        N  0.84404729  0.34288405  0.14152717    -0.37300
N868        N  0.88729709  0.53597668  0.27666688    -0.37300
C869        C  0.58814202  0.40695607  0.19425487    -0.03900
C870        C  0.55751050  0.38343024  0.22051468    -0.01100
C871        C  0.53462672  0.40381868  0.23711393     0.03900
C872        C  0.54520854  0.45009880  0.22974469    -0.03900
C873        C  0.57475086  0.47270030  0.20244180    -0.01000
C874        C  0.59474940  0.45064816  0.18438023     0.03900
C875        C  0.55003793  0.33833717  0.23101667     0.38600
C876        C  0.58667699  0.51941462  0.19285616     0.38600
C877        C  0.62060174  0.47223353  0.15452429     0.37000
C878        C  0.99881603  0.37556561  0.26074301     0.37000
N879        N  0.64065951  0.48906548  0.13050976    -0.37800
N880        N  0.97085394  0.35147218  0.27949329    -0.37800
N881        N  0.59756185  0.05648469  0.18366642    -0.37300
N882        N  0.54415357  0.30243990  0.23941127    -0.37300
C883        C  0.82137890  0.41208833  0.33922100    -0.03900
C884        C  0.85745235  0.45751568  0.34722936    -0.01100
C885        C  0.90113630  0.47758557  0.33101063     0.03900
C886        C  0.90919886  0.45285503  0.30584407    -0.03900
C887        C  0.87367961  0.40611966  0.29947236    -0.01000
C888        C  0.82982461  0.38652501  0.31531658     0.03900
C889        C  0.84901442  0.48455359  0.37148847     0.38600
C890        C  0.88234890  0.37656034  0.27793478     0.38600
C891        C  0.79380066  0.33910096  0.30780295     0.37000
C892        C  0.93678730  0.02426272  0.34019024     0.37000
N893        N  0.76504159  0.30133813  0.30178821    -0.37800
N894        N  0.96400761  0.06133581  0.34886420    -0.37800
N895        N  0.88722167  0.35147478  0.26085562    -0.37300
N896        N  0.84224274  0.00612606  0.39075477    -0.37300
C897        C  0.54859876  0.09601140  0.30389193    -0.03900
C898        C  0.58254141  0.10508811  0.32848535    -0.01100
C899        C  0.60590888  0.14882238  0.34447841     0.03900
C900        C  0.59434265  0.18352996  0.33751465    -0.03900
C901        C  0.55920731  0.17417444  0.31430508    -0.01000
C902        C  0.53638463  0.13087028  0.29769461     0.03900
C903        C  0.59519212  0.07052904  0.33725110     0.38600
C904        C  0.54492129  0.20848108  0.30861944     0.38600
C905        C  0.49894050  0.12236765  0.27533795     0.37000
C906        C  0.64334087  0.15879981  0.36749382     0.37000
N907        N  0.96989952  0.11809996  0.25746280    -0.37800
N908        N  0.67335025  0.16694027  0.38568815    -0.37800
N909        N  0.53341267  0.23576572  0.30429665    -0.37300
N910        N  0.60669667  0.04447204  0.34563679    -0.37300
C911        C  0.55224949  0.45709682  0.30549953    -0.03900
C912        C  0.59804238  0.46612367  0.29780185    -0.01100
C913        C  0.61720265  0.44159410  0.31370489     0.03900
C914        C  0.59283754  0.41039832  0.33942808    -0.03900
C915        C  0.54873609  0.40365115  0.34887527    -0.01000
C916        C  0.52855684  0.42664146  0.33212672     0.03900
C917        C  0.62709807  0.00199737  0.27448831     0.38600
C918        C  0.52286911  0.37128227  0.37517718     0.38600
C919        C  0.98244431  0.41670746  0.34212021     0.37000
C920        C  0.66288437  0.44954843  0.30405674     0.37000
N921        N  0.94584998  0.40753688  0.35157737    -0.37800
N922        N  0.69914322  0.95557339  0.29627603    -0.37800
N923        N  0.00225700  0.34556944  0.39613825    -0.37300
N924        N  0.65175001  0.02980458  0.25587818    -0.37300
C925        C  0.76502137  0.03141522  0.54588547    -0.03900
C926        C  0.74768436  0.04061603  0.51678050    -0.01100
C927        C  0.73280337  0.50876105  0.49054836     0.03900
C928        C  0.73567082  0.46785227  0.49309965    -0.03900
C929        C  0.75241221  0.45834906  0.52236414    -0.01000
C930        C  0.76744376  0.99028420  0.54856375     0.03900
C931        C  0.74707360  0.08390001  0.51312684     0.38600
C932        C  0.75196549  0.41456788  0.52623787     0.38600
C933        C  0.78423217  0.98018937  0.57861081     0.37000
C934        C  0.71551805  0.51864661  0.46064429     0.37000
N935        N  0.79765101  0.97214952  0.60255624    -0.37800
N936        N  0.70160753  0.52644085  0.43683652    -0.37800
N937        N  0.75129758  0.37953818  0.52935060    -0.37300
N938        N  0.74670476  0.11843260  0.51015109    -0.37300
C939        C  0.53306836  0.26703505  0.49203767    -0.03900
C940        C  0.49128127  0.22387560  0.48961426    -0.01100
C941        C  0.95945638  0.20765153  0.51596641     0.03900
C942        C  0.96967960  0.23414655  0.54518047    -0.03900
C943        C  0.01133035  0.27748416  0.54750096    -0.01000
C944        C  0.54301815  0.29383981  0.52107470     0.03900
C945        C  0.48028050  0.19684228  0.45960038     0.38600
C946        C  0.02220266  0.30480306  0.57737024     0.38600
C947        C  0.58678276  0.33753762  0.52436356     0.37000
C948        C  0.91504376  0.16474728  0.51228314     0.37000
N949        N  0.62166795  0.37232841  0.52697095    -0.37800
N950        N  0.87952859  0.13071744  0.50930889    -0.37800
N951        N  0.03094988  0.32668547  0.60114422    -0.37300
N952        N  0.47147135  0.17528445  0.43566656    -0.37300
C953        C  0.76828262  0.23457698  0.54424657    -0.03900
C954        C  0.79604854  0.25311708  0.51574114    -0.01100
C955        C  0.77961226  0.26808674  0.48918388     0.03900
C956        C  0.73513998  0.26405965  0.49078951    -0.03900
C957        C  0.70711656  0.24486733  0.51910141    -0.01000
C958        C  0.72347398  0.22977249  0.54557507     0.03900
C959        C  0.84054479  0.25455966  0.51292134     0.38600
C960        C  0.66218539  0.24254192  0.52178282     0.38600
C961        C  0.69438928  0.21007053  0.57443809     0.37000
C962        C  0.80795454  0.28637949  0.45985200     0.37000
N963        N  0.67102840  0.19413078  0.59733931    -0.37800
N964        N  0.83061012  0.30093280  0.43649110    -0.37800
N965        N  0.62645474  0.24080555  0.52393853    -0.37300
N966        N  0.87585950  0.25544875  0.51059847    -0.37300
C967        C  0.90891356  0.09036341  0.69880524    -0.03900
C968        C  0.88385730  0.05769282  0.72362724    -0.01100
C969        C  0.90391807  0.03452527  0.74034193     0.03900
C970        C  0.95035178  0.04485425  0.73330453    -0.03900
C971        C  0.97445024  0.07633869  0.70727694    -0.01000
C972        C  0.95406515  0.09909363  0.69049071     0.03900
C973        C  0.83639499  0.04637800  0.73112890     0.38600
C974        C  0.02124996  0.08768575  0.69804239     0.38600
C975        C  0.98062575  0.13312490  0.66522718     0.37000
C976        C  0.87523496  0.99881220  0.76386941     0.37000
N977        N  0.00176601  0.16022301  0.64511080    -0.37800
N978        N  0.85092225  0.97120894  0.78272222    -0.37800
N979        N  0.05846266  0.09819553  0.68919047    -0.37300
N980        N  0.79853689  0.03729583  0.73704954    -0.37300
C981        C  0.68112562  0.09073769  0.69848516    -0.03900
C982        C  0.67274965  0.11615634  0.72253816    -0.01100
C983        C  0.62924578  0.09614528  0.73897290     0.03900
C984        C  0.59373484  0.04932209  0.73268259    -0.03900
C985        C  0.60174113  0.02476140  0.70734074    -0.01000
C986        C  0.64518512  0.04512509  0.69073957     0.03900
C987        C  0.70843262  0.16391557  0.72951364     0.38600
C988        C  0.56636072  0.97783804  0.69845593     0.38600
C989        C  0.65352940  0.01817736  0.66634476     0.37000
C990        C  0.62097607  0.12543658  0.76104786     0.37000
N991        N  0.66020687  0.99665807  0.64697611    -0.37800
N992        N  0.61661490  0.15043243  0.77855415    -0.37800
N993        N  0.53944338  0.94052827  0.69002371    -0.37300
N994        N  0.73689522  0.20198337  0.73502518    -0.37300
C995        C  0.90942878  0.31886522  0.69961517    -0.03900
C996        C  0.89935924  0.35445560  0.69186284    -0.01100
C997        C  0.92179908  0.39762618  0.70867224     0.03900
C998        C  0.95448835  0.40595870  0.73405741    -0.03900
C999        C  0.96591723  0.37063599  0.74065252    -0.01000
C1000       C  0.94289871  0.32728675  0.72404810     0.03900
C1001       C  0.86435957  0.34606448  0.66712915     0.38600
C1002       C  0.50297596  0.37884944  0.76332344     0.38600
C1003       C  0.95520810  0.29188033  0.73121309     0.37000
C1004       C  0.90918844  0.43226886  0.70005948     0.37000
N1005       N  0.96505342  0.26367282  0.73688186    -0.37800
N1006       N  0.89765234  0.45838786  0.69189577    -0.37800
N1007       N  0.53187557  0.38318408  0.78136835    -0.37300
N1008       N  0.83645060  0.33937027  0.64745073    -0.37300
C1009       C  0.97138065  0.23983617  0.99141165    -0.03900
C1010       C  0.96626945  0.26300855  0.01897043    -0.01100
C1011       C  0.99610125  0.27382077  0.04618255     0.03900
C1012       C  0.53083234  0.26109111  0.04617262    -0.03900
C1013       C  0.53526116  0.23704416  0.01891135    -0.01000
C1014       C  0.50595534  0.22692638  0.99147300     0.03900
C1015       C  0.93004802  0.27563335  0.01945063     0.38600
C1016       C  0.56923450  0.22146395  0.01944820     0.38600
C1017       C  0.50974352  0.20097238  0.96411528     0.37000
C1018       C  0.99194100  0.29936303  0.07365870     0.37000
N1019       N  0.51263242  0.18019387  0.94232179    -0.37800
N1020       N  0.98860276  0.31969386  0.09557079    -0.37800
N1021       N  0.59623864  0.20898340  0.01991046    -0.37300
N1022       N  0.90089326  0.28524649  0.01997399    -0.37300
C1023       C  0.73389152  0.47165774  0.04660484    -0.03900
C1024       C  0.70278219  0.46877176  0.02162874    -0.01100
C1025       C  0.72003801  0.49604462  0.99310983     0.03900
C1026       C  0.76846134  0.02591015  0.98932387    -0.03900
C1027       C  0.79960340  0.02809384  0.01400114    -0.01000
C1028       C  0.78228431  0.50171884  0.04287900     0.03900
C1029       C  0.65279142  0.43796517  0.02552930     0.38600
C1030       C  0.84969515  0.05722969  0.00936681     0.38600
C1031       C  0.81431805  0.00464281  0.06834002     0.37000
C1032       C  0.68790012  0.49470774  0.96830607     0.37000
N1033       N  0.83986368  0.00724878  0.08873620    -0.37800
N1034       N  0.66230068  0.49367777  0.94852096    -0.37800
N1035       N  0.88957819  0.08030383  0.00547851    -0.37300
N1036       N  0.61299478  0.41331682  0.02870556    -0.37300
C1037       C  0.74419594  0.26840578  0.04948357    -0.03900
C1038       C  0.72588989  0.21998290  0.04699775    -0.01100
C1039       C  0.73385110  0.20123181  0.01842797     0.03900
C1040       C  0.76107347  0.23099496  0.99257444    -0.03900
C1041       C  0.78006047  0.27951450  0.99534970    -0.01000
C1042       C  0.77188247  0.29820857  0.02384075     0.03900
C1043       C  0.69751099  0.18934690  0.07329899     0.38600
C1044       C  0.80924945  0.31033117  0.96940034     0.38600
C1045       C  0.79229954  0.34834236  0.02698969     0.37000
C1046       C  0.71320992  0.15107578  0.01530057     0.37000
N1047       N  0.80857257  0.38827173  0.02957707    -0.37800
N1048       N  0.69665523  0.11110879  0.01275235    -0.37800
N1049       N  0.83242679  0.33483146  0.94865268    -0.37300
N1050       N  0.67508245  0.16503267  0.09437402    -0.37300
C1051       C  0.91321603  0.09385771  0.84350254    -0.03900
C1052       C  0.90486133  0.04918119  0.85257930    -0.01100
C1053       C  0.92666260  0.02804538  0.83554640     0.03900
C1054       C  0.95729280  0.05120693  0.80887078    -0.03900
C1055       C  0.96836596  0.09767113  0.80175859    -0.01000
C1056       C  0.94539161  0.11807048  0.81816263     0.03900
C1057       C  0.87415170  0.02484577  0.88001847     0.38600
C1058       C  0.50490909  0.12617873  0.77866431     0.38600
C1059       C  0.95385960  0.16365684  0.80802605     0.37000
C1060       C  0.91588379  0.48185284  0.84569237     0.37000
N1061       N  0.46047645  0.19990496  0.79987253    -0.37800
N1062       N  0.90617190  0.44534982  0.85547497    -0.37800
N1063       N  0.53342472  0.15063030  0.76036567    -0.37300
N1064       N  0.84962335  0.50537418  0.90180738    -0.37300
C1065       C  0.68050863  0.08888737  0.84304889    -0.03900
C1066       C  0.67203045  0.05541719  0.81855648    -0.01100
C1067       C  0.62870458  0.03259777  0.80198571     0.03900
C1068       C  0.59394024  0.04488890  0.80809490    -0.03900
C1069       C  0.60206253  0.07727928  0.83357155    -0.01000
C1070       C  0.64475486  0.09875955  0.85096047     0.03900
C1071       C  0.70834506  0.04499744  0.80962793     0.38600
C1072       C  0.56775734  0.09051958  0.84192851     0.38600
C1073       C  0.65117468  0.13035986  0.87776167     0.37000
C1074       C  0.62003666  0.49512792  0.77965625     0.37000
N1075       N  0.65615357  0.15548304  0.89908742    -0.37800
N1076       N  0.61532361  0.46582729  0.76195204    -0.37800
N1077       N  0.54233515  0.10288849  0.85027440    -0.37300
N1078       N  0.73723684  0.03665455  0.80249032    -0.37300
C1079       C  0.95006840  0.40784824  0.80944987    -0.03900
C1080       C  0.90280088  0.37340602  0.80341018    -0.01100
C1081       C  0.88201841  0.33011001  0.81994319     0.03900
C1082       C  0.90693200  0.32139175  0.84440671    -0.03900
C1083       C  0.95243522  0.35723674  0.85271756    -0.01000
C1084       C  0.97396082  0.39989048  0.83532040     0.03900
C1085       C  0.87410426  0.38247722  0.78119552     0.38600
C1086       C  0.97697447  0.35091295  0.88002033     0.38600
C1087       C  0.52130945  0.43450654  0.84409523     0.37800
C1088       C  0.83513552  0.29408966  0.81095699     0.37000
N1089       N  0.55891941  0.46069269  0.85253254    -0.37800
N1090       N  0.79778075  0.26551930  0.80366348    -0.37800
N1091       N  0.49643545  0.34591466  0.90183813    -0.37300
N1092       N  0.84962145  0.38765349  0.76362378    -0.37300
Zn1093     Zn  0.80164844  0.60160019  0.89587703     1.49700
Zn1094     Zn  0.89875025  0.70137597  0.89643880     1.49400
Zn1095     Zn  0.79950017  0.69878346  0.89710546     1.49100
Zn1096     Zn  0.83271398  0.66496499  0.95723364     1.49500
O1097       O  0.83321924  0.66678693  0.91048831    -1.82700
O1098       O  0.84649023  0.59084272  0.86867382    -0.73400
O1099       O  0.90990036  0.75743940  0.86931032    -0.73200
O1100       O  0.74372983  0.65474776  0.86956566    -0.72700
O1101       O  0.91363644  0.65834076  0.87030022    -0.73400
O1102       O  0.74441896  0.58794425  0.86972167    -0.73000
O1103       O  0.84244790  0.75701401  0.87126989    -0.73600
O1104       O  0.79883475  0.69124720  0.97711805    -0.72900
O1105       O  0.94377674  0.72583272  0.93555897    -0.73700
O1106       O  0.77572473  0.71927824  0.93654166    -0.73100
O1107       O  0.89331477  0.69831194  0.97655491    -0.73600
O1108       O  0.80619982  0.60397748  0.97563303    -0.73500
O1109       O  0.77975714  0.55484279  0.93391817    -0.73300
C1110       C  0.88973839  0.61570811  0.86153265     0.78500
C1111       C  0.88508384  0.77589780  0.86236501     0.79000
C1112       C  0.72559278  0.61191698  0.86152114     0.78000
C1113       C  0.77862868  0.71246823  0.96700776     0.78400
C1114       C  0.93460521  0.72096638  0.96615917     0.79500
C1115       C  0.78583741  0.56307928  0.96457097     0.78500
Zn1116     Zn  0.83363179  0.66696078  0.67737080     1.49700
Zn1117     Zn  0.77021599  0.63553575  0.61214900     1.49400
Zn1118     Zn  0.86696876  0.73127675  0.61240361     1.49100
Zn1119     Zn  0.86556677  0.63499428  0.61207158     1.49500
O1120       O  0.83414766  0.66726569  0.62903943    -1.82700
O1121       O  0.76526368  0.63305611  0.69401453    -0.73400
O1122       O  0.75895157  0.67640537  0.58219790    -0.73200
O1123       O  0.88935933  0.77779830  0.64902963    -0.72700
O1124       O  0.72290430  0.61176070  0.64820079    -0.73400
O1125       O  0.86811959  0.73493947  0.69458977    -0.73000
O1126       O  0.82649840  0.74295983  0.58209260    -0.73600
O1127       O  0.91830100  0.67562556  0.58215673    -0.72900
O1128       O  0.75779875  0.58262592  0.58274276    -0.73700
O1129       O  0.92077022  0.74370352  0.58323105    -0.73100
O1130       O  0.82431162  0.58164088  0.58283782    -0.73600
O1131       O  0.88876523  0.61172487  0.64848370    -0.73500
O1132       O  0.86688166  0.63225038  0.69423797    -0.73300
C1133       C  0.72567946  0.61303999  0.67934253     0.78500
C1134       C  0.78517554  0.71742238  0.57146554     0.79000
C1135       C  0.88768768  0.77462382  0.68017728     0.78000
C1136       C  0.93514716  0.71728806  0.57218908     0.78400
C1137       C  0.78298880  0.56640400  0.57244152     0.79500
C1138       C  0.88691374  0.61276217  0.67962442     0.78500
C1139       C  0.49949345  0.50001743  0.73902910     0.46900
H1140       H  0.49901523  0.49949106  0.71181995    -0.02200
C1141       C  0.50054605  0.00110486  0.80268935     0.46900
H1142       H  0.50126111  0.00163724  0.82987953    -0.02200
C1143       C  0.54971013  0.52559418  0.75354545    -0.15900
C1144       C  0.97440498  0.52483325  0.75398528    -0.15600
C1145       C  0.97510655  0.95042440  0.75435820    -0.16000
C1146       C  0.55002891  0.52500984  0.78744313    -0.16000
C1147       C  0.97620076  0.52649735  0.78790285    -0.15500
C1148       C  0.97458694  0.95115783  0.78825671    -0.15900
Zn1149     Zn  0.63606526  0.77005468  0.42477393     1.49700
Zn1150     Zn  0.66911177  0.83477636  0.36022496     1.49400
Zn1151     Zn  0.63710058  0.86591552  0.42548990     1.49100
Zn1152     Zn  0.73265508  0.86559624  0.42559895     1.49500
O1153       O  0.66881284  0.83404682  0.40849431    -1.82700
O1154       O  0.61368371  0.72407121  0.38807471    -0.73400
O1155       O  0.63475099  0.86836909  0.34365813    -0.73200
O1156       O  0.58421665  0.82518604  0.45492335    -0.72700
O1157       O  0.63553863  0.76724557  0.34265720    -0.73400
O1158       O  0.58252436  0.75748214  0.45442541    -0.73000
O1159       O  0.61375784  0.88937900  0.38952858    -0.73600
O1160       O  0.74399250  0.91718914  0.45623538    -0.72900
O1161       O  0.73731388  0.86951304  0.34359165    -0.73700
O1162       O  0.67771227  0.91862964  0.45510403    -0.73100
O1163       O  0.77965918  0.89088078  0.38944041    -0.73600
O1164       O  0.74496517  0.82378536  0.45403612    -0.73500
O1165       O  0.67701658  0.75767868  0.45379665    -0.73300
C1166       C  0.61583848  0.72753447  0.35697548     0.78500
C1167       C  0.61491769  0.88793364  0.35840537     0.79000
C1168       C  0.56772606  0.78372598  0.46514320     0.78000
C1169       C  0.71857185  0.93334799  0.46623013     0.78400
C1170       C  0.77685541  0.88976677  0.35829918     0.79500
C1171       C  0.71857769  0.78244072  0.46415853     0.78500
Zn1172     Zn  0.70228909  0.80241134  0.14260355     1.49700
Zn1173     Zn  0.70028948  0.89949103  0.14164390     1.49400
Zn1174     Zn  0.66972504  0.83354348  0.08097570     1.49100
Zn1175     Zn  0.60294267  0.79992563  0.14131668     1.49500
O1176       O  0.66878134  0.83396532  0.12776276    -1.82700
O1177       O  0.75744137  0.84649644  0.17047636    -0.73400
O1178       O  0.72168680  0.94466489  0.10255426    -0.73200
O1179       O  0.70393987  0.80643368  0.06277136    -0.72700
O1180       O  0.75813497  0.91391986  0.16801125    -0.73400
O1181       O  0.72778801  0.78136588  0.10470267    -0.73000
O1182       O  0.69716737  0.89408062  0.06160813    -0.73600
O1183       O  0.55838605  0.77655591  0.10200487    -0.72900
O1184       O  0.65493519  0.91056971  0.16853181    -0.73700
O1185       O  0.60911614  0.80020162  0.06116397    -0.73100
O1186       O  0.58811746  0.84265202  0.16765826    -0.73600
O1187       O  0.59057613  0.74347296  0.16827702    -0.73500
O1188       O  0.65836055  0.74457060  0.16790651    -0.73300
C1189       C  0.77635208  0.88977042  0.17732472     0.78500
C1190       C  0.71661733  0.93533067  0.07199058     0.79000
C1191       C  0.72499842  0.78664281  0.07401424     0.78000
C1192       C  0.56766091  0.77967207  0.07145393     0.78400
C1193       C  0.61180298  0.88540276  0.17608938     0.79500
C1194       C  0.61540947  0.72533662  0.17598628     0.78500
C1195       C  0.50194131  0.50024838  0.23575354     0.46900
H1196       H  0.50112779  0.49953493  0.20856951    -0.02200
C1197       C  0.50334841  0.50203445  0.29941825     0.46900
H1198       H  0.50406784  0.50305035  0.32660772    -0.02200
C1199       C  0.95253164  0.97658148  0.25108455    -0.15900
C1200       C  0.52638119  0.97498281  0.25069698    -0.15600
C1201       C  0.52788243  0.55028365  0.24997854    -0.16000
C1202       C  0.95309653  0.97637833  0.28497897    -0.16000
C1203       C  0.52827377  0.97698904  0.28463736    -0.15500
C1204       C  0.52767891  0.55137231  0.28384437    -0.15900
C1205       C  0.55174816  0.59341330  0.22869215    -0.03900
C1206       C  0.52711133  0.60129311  0.20334237    -0.01100
C1207       C  0.54784593  0.64417692  0.18626508     0.03900
C1208       C  0.59359316  0.68001350  0.19408825    -0.03900
C1209       C  0.61915538  0.67135006  0.21808295    -0.01000
C1210       C  0.59899152  0.62801553  0.23442626     0.03900
C1211       C  0.97986222  0.56629651  0.19468477     0.38600
C1212       C  0.66613003  0.70748363  0.22682156     0.38600
C1213       C  0.62836186  0.61904784  0.25603929     0.37000
C1214       C  0.52203165  0.65074028  0.15995881     0.37000
N1215       N  0.65349022  0.61408427  0.27307873    -0.37800
N1216       N  0.50130834  0.65578172  0.13903852    -0.37800
N1217       N  0.70356376  0.73619921  0.23381358    -0.37300
N1218       N  0.94235874  0.53993479  0.18615912    -0.37300
C1219       C  0.90842396  0.95665631  0.23054105    -0.03900
C1220       C  0.87392122  0.96940371  0.23646693    -0.01100
C1221       C  0.83072560  0.94710059  0.21965922     0.03900
C1222       C  0.82165491  0.91290518  0.19564921    -0.03900
C1223       C  0.85693379  0.90210822  0.18818743    -0.01000
C1224       C  0.89990395  0.92384954  0.20529464     0.03900
C1225       C  0.88269545  0.00682375  0.25885943     0.38600
C1226       C  0.84969463  0.86916329  0.16217293     0.38600
C1227       C  0.93422584  0.91065696  0.19683532     0.37000
C1228       C  0.79512795  0.95887457  0.22778536     0.37000
N1229       N  0.95983997  0.89853358  0.18847429    -0.37800
N1230       N  0.76683652  0.96837450  0.23421901    -0.37800
N1231       N  0.84404737  0.84288406  0.14152721    -0.37300
N1232       N  0.88729694  0.03597656  0.27666691    -0.37300
C1233       C  0.58814208  0.90695615  0.19425490    -0.03900
C1234       C  0.55751054  0.88343029  0.22051468    -0.01100
C1235       C  0.53462669  0.90381866  0.23711393     0.03900
C1236       C  0.54520846  0.95009878  0.22974466    -0.03900
C1237       C  0.57475078  0.97270031  0.20244177    -0.01000
C1238       C  0.59474943  0.95064822  0.18438024     0.03900
C1239       C  0.55003802  0.83833722  0.23101668     0.38600
C1240       C  0.58667688  0.01941464  0.19285608     0.38600
C1241       C  0.62060179  0.97223354  0.15452431     0.37000
C1242       C  0.99881601  0.87556560  0.26074300     0.37000
N1243       N  0.64065959  0.98906538  0.13050976    -0.37800
N1244       N  0.97085395  0.85147207  0.27949328    -0.37800
N1245       N  0.59756197  0.55648472  0.18366660    -0.37300
N1246       N  0.54415371  0.80243998  0.23941125    -0.37300
C1247       C  0.82137892  0.91208836  0.33922100    -0.03900
C1248       C  0.85745238  0.95751574  0.34722932    -0.01100
C1249       C  0.90113633  0.97758565  0.33101060     0.03900
C1250       C  0.90919889  0.95285508  0.30584406    -0.03900
C1251       C  0.87367962  0.90611972  0.29947237    -0.01000
C1252       C  0.82982465  0.88652504  0.31531659     0.03900
C1253       C  0.84901448  0.98455362  0.37148848     0.38600
C1254       C  0.88234885  0.87656038  0.27793476     0.38600
C1255       C  0.79380064  0.83910097  0.30780294     0.37000
C1256       C  0.93678721  0.52426268  0.34019024     0.37000
N1257       N  0.76504152  0.80133819  0.30178822    -0.37800
N1258       N  0.96400742  0.56133578  0.34886421    -0.37800
N1259       N  0.88722148  0.85147475  0.26085562    -0.37300
N1260       N  0.84224254  0.50612598  0.39075474    -0.37300
C1261       C  0.54859864  0.59601136  0.30389195    -0.03900
C1262       C  0.58254126  0.60508805  0.32848536    -0.01100
C1263       C  0.60590882  0.64882234  0.34447840     0.03900
C1264       C  0.59434260  0.68352993  0.33751467    -0.03900
C1265       C  0.55920728  0.67417443  0.31430508    -0.01000
C1266       C  0.53638457  0.63087026  0.29769461     0.03900
C1267       C  0.59519194  0.57052902  0.33725111     0.38600
C1268       C  0.54492125  0.70848108  0.30861943     0.38600
C1269       C  0.49894046  0.62236761  0.27533796     0.37000
C1270       C  0.64334081  0.65879974  0.36749379     0.37000
N1271       N  0.96989948  0.61809986  0.25746275    -0.37800
N1272       N  0.67335014  0.66694019  0.38568819    -0.37800
N1273       N  0.53341251  0.73576560  0.30429666    -0.37300
N1274       N  0.60669664  0.54447212  0.34563683    -0.37300
C1275       C  0.55224940  0.95709672  0.30549949    -0.03900
C1276       C  0.59804227  0.96612356  0.29780180    -0.01100
C1277       C  0.61720254  0.94159398  0.31370481     0.03900
C1278       C  0.59283747  0.91039828  0.33942807    -0.03900
C1279       C  0.54873601  0.90365108  0.34887526    -0.01000
C1280       C  0.52855673  0.92664137  0.33212670     0.03900
C1281       C  0.62709812  0.50199744  0.27448834     0.38600
C1282       C  0.52286900  0.87128219  0.37517718     0.38600
C1283       C  0.98244424  0.91670746  0.34212021     0.37000
C1284       C  0.66288422  0.94954830  0.30405664     0.37000
N1285       N  0.94584995  0.90753709  0.35157737    -0.37800
N1286       N  0.69914330  0.45557348  0.29627610    -0.37800
N1287       N  0.00225679  0.84556936  0.39613823    -0.37300
N1288       N  0.65174994  0.52980471  0.25587820    -0.37300
C1289       C  0.76502129  0.53141515  0.54588549    -0.03900
C1290       C  0.74768449  0.54061609  0.51678046    -0.01100
C1291       C  0.73280324  0.00876099  0.49054840     0.03900
C1292       C  0.73567079  0.96785225  0.49309967    -0.03900
C1293       C  0.75241231  0.95834912  0.52236411    -0.01000
C1294       C  0.76744357  0.49028410  0.54856379     0.03900
C1295       C  0.74707379  0.58390009  0.51312680     0.38600
C1296       C  0.75196564  0.91456793  0.52623784     0.38600
C1297       C  0.78423211  0.48018933  0.57861083     0.37000
C1298       C  0.71551803  0.01864663  0.46064431     0.37000
N1299       N  0.79765118  0.47214963  0.60255619    -0.37800
N1300       N  0.70160769  0.02644096  0.43683648    -0.37800
N1301       N  0.75129770  0.87953825  0.52935059    -0.37300
N1302       N  0.74670487  0.61843266  0.51015109    -0.37300
C1303       C  0.53306822  0.76703512  0.49203765    -0.03900
C1304       C  0.49128117  0.72387567  0.48961424    -0.01100
C1305       C  0.95945643  0.70765165  0.51596643     0.03900
C1306       C  0.96967965  0.73414659  0.54518052    -0.03900
C1307       C  0.01133033  0.77748424  0.54750100    -0.01000
C1308       C  0.54301800  0.79383993  0.52107467     0.03900
C1309       C  0.48028037  0.69684234  0.45960032     0.38600
C1310       C  0.02220274  0.80480310  0.57737033     0.38600
C1311       C  0.58678269  0.83753767  0.52436355     0.37000
C1312       C  0.91504387  0.66474744  0.51228315     0.37000
N1313       N  0.62166800  0.87232831  0.52697096    -0.37800
N1314       N  0.87952874  0.63071758  0.50930889    -0.37800
N1315       N  0.03095012  0.82668564  0.60114426    -0.37300
N1316       N  0.47147130  0.67528471  0.43566642    -0.37300
C1317       C  0.76828259  0.73457695  0.54424656    -0.03900
C1318       C  0.79604845  0.75311709  0.51574111    -0.01100
C1319       C  0.77961210  0.76808667  0.48918386     0.03900
C1320       C  0.73513984  0.76405961  0.49078954    -0.03900
C1321       C  0.70711649  0.74486738  0.51910148    -0.01000
C1322       C  0.72347399  0.72977253  0.54557510     0.03900
C1323       C  0.84054471  0.75455976  0.51292132     0.38600
C1324       C  0.66218535  0.74254201  0.52178292     0.38600
C1325       C  0.69438937  0.71007059  0.57443814     0.37000
C1326       C  0.80795439  0.78637941  0.45985197     0.37000
N1327       N  0.67102851  0.69413074  0.59733932    -0.37800
N1328       N  0.83061011  0.80093268  0.43649114    -0.37800
N1329       N  0.62645472  0.74080575  0.52393857    -0.37300
N1330       N  0.87585937  0.75544874  0.51059846    -0.37300
C1331       C  0.90891357  0.59036344  0.69880520    -0.03900
C1332       C  0.88385738  0.55769296  0.72362727    -0.01100
C1333       C  0.90391819  0.53452544  0.74034197     0.03900
C1334       C  0.95035187  0.54485437  0.73330456    -0.03900
C1335       C  0.97445029  0.57633875  0.70727693    -0.01000
C1336       C  0.95406512  0.59909359  0.69049066     0.03900
C1337       C  0.83639512  0.54637819  0.73112894     0.38600
C1338       C  0.02124999  0.58768582  0.69804240     0.38600
C1339       C  0.98062575  0.63312483  0.66522715     0.37000
C1340       C  0.87523505  0.49881233  0.76386942     0.37000
N1341       N  0.00176610  0.66022293  0.64511079    -0.37800
N1342       N  0.85092225  0.47120908  0.78272218    -0.37800
N1343       N  0.05846270  0.59819554  0.68919044    -0.37300
N1344       N  0.79853699  0.53729606  0.73704956    -0.37300
C1345       C  0.68112557  0.59073773  0.69848510    -0.03900
C1346       C  0.67274964  0.61615635  0.72253813    -0.01100
C1347       C  0.62924582  0.59614527  0.73897290     0.03900
C1348       C  0.59373489  0.54932208  0.73268260    -0.03900
C1349       C  0.60174115  0.52476140  0.70734072    -0.01000
C1350       C  0.64518511  0.54512512  0.69073953     0.03900
C1351       C  0.70843264  0.66391560  0.72951363     0.38600
C1352       C  0.56636073  0.47783800  0.69845591     0.38600
C1353       C  0.65352941  0.51817746  0.66634469     0.37000
C1354       C  0.62097614  0.62543655  0.76104787     0.37000
N1355       N  0.66020683  0.49665824  0.64697595    -0.37800
N1356       N  0.61661497  0.65043238  0.77855419    -0.37800
N1357       N  0.53944350  0.44052820  0.69002373    -0.37300
N1358       N  0.73689530  0.70198334  0.73502519    -0.37300
C1359       C  0.90942876  0.81886525  0.69961515    -0.03900
C1360       C  0.89935914  0.85445561  0.69186289    -0.01100
C1361       C  0.92179899  0.89762620  0.70867226     0.03900
C1362       C  0.95448824  0.90595867  0.73405742    -0.03900
C1363       C  0.96591711  0.87063594  0.74065253    -0.01000
C1364       C  0.94289870  0.82728677  0.72404806     0.03900
C1365       C  0.86435957  0.84606460  0.66712916     0.38600
C1366       C  0.50297588  0.87884937  0.76332347     0.38600
C1367       C  0.95520820  0.79188036  0.73121304     0.37000
C1368       C  0.90918834  0.93226889  0.70005950     0.37000
N1369       N  0.96505351  0.76367287  0.73688183    -0.37800
N1370       N  0.89765215  0.95838782  0.69189576    -0.37800
N1371       N  0.53187554  0.88318400  0.78136830    -0.37300
N1372       N  0.83645072  0.83937051  0.64745065    -0.37300
C1373       C  0.97138070  0.73983630  0.99141167    -0.03900
C1374       C  0.96626948  0.76300868  0.01897047    -0.01100
C1375       C  0.99610126  0.77382079  0.04618261     0.03900
C1376       C  0.53083232  0.76109114  0.04617265    -0.03900
C1377       C  0.53526114  0.73704416  0.01891140    -0.01000
C1378       C  0.50595538  0.72692645  0.99147302     0.03900
C1379       C  0.93004803  0.77563347  0.01945067     0.38600
C1380       C  0.56923440  0.72146389  0.01944830     0.38600
C1381       C  0.50974350  0.70097234  0.96411534     0.37000
C1382       C  0.99194097  0.79936299  0.07365881     0.37000
N1383       N  0.51263223  0.68019377  0.94232185    -0.37800
N1384       N  0.98860260  0.81969368  0.09557092    -0.37800
N1385       N  0.59623852  0.70898328  0.01991067    -0.37300
N1386       N  0.90089312  0.78524644  0.01997400    -0.37300
C1387       C  0.73389149  0.97165774  0.04660491    -0.03900
C1388       C  0.70278212  0.96877184  0.02162889    -0.01100
C1389       C  0.72003794  0.99604461  0.99310993     0.03900
C1390       C  0.76846140  0.52591016  0.98932382    -0.03900
C1391       C  0.79960344  0.52809383  0.01400111    -0.01000
C1392       C  0.78228427  0.00171882  0.04287901     0.03900
C1393       C  0.65279134  0.93796515  0.02552944     0.38600
C1394       C  0.84969518  0.55722967  0.00936679     0.38600
C1395       C  0.81431811  0.50464278  0.06834001     0.37000
C1396       C  0.68790011  0.99470761  0.96830613     0.37000
N1397       N  0.83986374  0.50724868  0.08873618    -0.37800
N1398       N  0.66230076  0.99367765  0.94852095    -0.37800
N1399       N  0.88957821  0.58030374  0.00547852    -0.37300
N1400       N  0.61299469  0.91331676  0.02870558    -0.37300
C1401       C  0.74419591  0.76840569  0.04948357    -0.03900
C1402       C  0.72588980  0.71998281  0.04699773    -0.01100
C1403       C  0.73385106  0.70123178  0.01842795     0.03900
C1404       C  0.76107347  0.73099492  0.99257442    -0.03900
C1405       C  0.78006045  0.77951447  0.99534970    -0.01000
C1406       C  0.77188239  0.79820849  0.02384074     0.03900
C1407       C  0.69751080  0.68934680  0.07329895     0.38600
C1408       C  0.80924935  0.81033117  0.96940033     0.38600
C1409       C  0.79229935  0.84834227  0.02698967     0.37000
C1410       C  0.71320988  0.65107574  0.01530055     0.37000
N1411       N  0.80857234  0.88827163  0.02957707    -0.37800
N1412       N  0.69665530  0.61110881  0.01275235    -0.37800
N1413       N  0.83242663  0.83483147  0.94865264    -0.37300
N1414       N  0.67508225  0.66503260  0.09437399    -0.37300
C1415       C  0.91321609  0.59385772  0.84350254    -0.03900
C1416       C  0.90486131  0.54918117  0.85257927    -0.01100
C1417       C  0.92666260  0.52804539  0.83554638     0.03900
C1418       C  0.95729288  0.55120698  0.80887080    -0.03900
C1419       C  0.96836606  0.59767118  0.80175862    -0.01000
C1420       C  0.94539169  0.61807051  0.81816264     0.03900
C1421       C  0.87415172  0.52484572  0.88001846     0.38600
C1422       C  0.50490925  0.62617883  0.77866433     0.38600
C1423       C  0.95385961  0.66365685  0.80802604     0.37000
C1424       C  0.91588374  0.98185282  0.84569239     0.37000
N1425       N  0.46047656  0.69990497  0.79987251    -0.37800
N1426       N  0.90617174  0.94534974  0.85547496    -0.37800
N1427       N  0.53342486  0.65063043  0.76036572    -0.37300
N1428       N  0.84962327  0.00537427  0.90180737    -0.37300
C1429       C  0.68050855  0.58888732  0.84304891    -0.03900
C1430       C  0.67203038  0.55541713  0.81855649    -0.01100
C1431       C  0.62870454  0.53259777  0.80198570     0.03900
C1432       C  0.59394025  0.54488894  0.80809488    -0.03900
C1433       C  0.60206248  0.57727925  0.83357157    -0.01000
C1434       C  0.64475478  0.59875949  0.85096051     0.03900
C1435       C  0.70834497  0.54499735  0.80962794     0.38600
C1436       C  0.56775734  0.59051960  0.84192851     0.38600
C1437       C  0.65117464  0.63035986  0.87776169     0.37000
C1438       C  0.62003677  0.99512797  0.77965625     0.37000
N1439       N  0.65615375  0.65548319  0.89908737    -0.37800
N1440       N  0.61532382  0.96582740  0.76195200    -0.37800
N1441       N  0.54233532  0.60288871  0.85027441    -0.37300
N1442       N  0.73723674  0.53665443  0.80249030    -0.37300
C1443       C  0.95006841  0.90784817  0.80944985    -0.03900
C1444       C  0.90280092  0.87340597  0.80341017    -0.01100
C1445       C  0.88201845  0.83011003  0.81994320     0.03900
C1446       C  0.90693199  0.82139175  0.84440672    -0.03900
C1447       C  0.95243526  0.85723670  0.85271754    -0.01000
C1448       C  0.97396084  0.89989044  0.83532038     0.03900
C1449       C  0.87410431  0.88247715  0.78119551     0.38600
C1450       C  0.97697447  0.85091290  0.88002031     0.38600
C1451       C  0.52130947  0.93450654  0.84409524     0.37800
C1452       C  0.83513556  0.79408968  0.81095699     0.37000
N1453       N  0.55891944  0.96069260  0.85253255    -0.37800
N1454       N  0.79778086  0.76551926  0.80366347    -0.37800
N1455       N  0.49643552  0.84591456  0.90183811    -0.37300
N1456       N  0.84962150  0.88765340  0.76362376    -0.37300
loop_ 
_geom_bond_atom_site_label_1 
_geom_bond_atom_site_label_2 
_geom_bond_distance 
_geom_bond_site_symmetry_2 
_ccdc_geom_bond_type 
Zn1           O5   1.964       .  S
Zn1           O6   2.022       .  S
Zn1          O10   2.016       .  S
Zn1          O17   2.052       .  S
Zn2           O5   1.963       .  S
Zn2           O7   2.032       .  S
Zn2           O9   2.030       .  S
Zn2          O13   2.052       .  S
Zn3           O5   1.963       .  S
Zn3           O8   2.024       .  S
Zn3          O11   2.027       .  S
Zn3          O14   2.050       .  S
Zn4           O5   1.907       .  S
Zn4          O12   1.911       .  S
Zn4          O15   1.908       .  S
Zn4          O16   1.909       .  S
O6           C18   1.277       .  A
O7           C19   1.277       .  A
O8           C20   1.277       .  A
O9           C18   1.277       .  A
O10          C20   1.276       .  A
O11          C19   1.276       .  A
O12          C21   1.258       .  A
O13          C22   1.275       .  A
O14          C21   1.275       .  A
O15          C22   1.258       .  A
O16          C23   1.257       .  A
O17          C23   1.274       .  A
C18         C323   1.494       .  S
C19         C354   1.497       .  S
C20         C337   1.494       .  S
C21         C312   1.469       .  S
C22         C281   1.473       .  S
C23         C298   1.469       .  S
Zn24         O28   1.971       .  S
Zn24         O29   2.072       .  S
Zn24         O33   2.073       .  S
Zn24         O40   2.068       .  S
Zn25         O28   1.955       .  S
Zn25         O30   1.993       .  S
Zn25         O32   1.999       .  S
Zn25         O36   1.991       .  S
Zn26         O28   1.958       .  S
Zn26         O31   2.003       .  S
Zn26         O34   1.997       .  S
Zn26         O37   2.005       .  S
Zn27         O28   1.954       .  S
Zn27         O35   1.998       .  S
Zn27         O38   1.998       .  S
Zn27         O39   1.995       .  S
O29          C41   1.281       .  A
O30          C42   1.270       .  A
O31          C43   1.273       .  A
O32          C41   1.272       .  A
O33          C43   1.282       .  A
O34          C42   1.270       .  A
O35          C44   1.270       .  A
O36          C45   1.269       .  A
O37          C44   1.270       .  A
O38          C45   1.269       .  A
O39          C46   1.273       .  A
O40          C46   1.281       .  A
C41         C253   1.496       .  S
C42         C225   1.478       .  S
C43         C267   1.497       .  S
C44         C214   1.480       .  S
C45         C197   1.477       .  S
C46         C239   1.495       .  S
C47          H48   1.110   1_545  S
C47          C51   1.555   1_655  S
C47        C1145   1.554   1_545  S
C47         C780   1.556       .  S
C49          H50   1.109       .  S
C49        C1147   1.549   1_455  S
C49         C418   1.547       .  S
C49         C784   1.550   1_455  S
C51          C54   1.382       .  D
C51         C256   1.522       .  S
C52         C775   1.556       .  S
C52          C55   1.384       .  D
C52         C242   1.521       .  S
C53        C1139   1.554       .  S
C53          C56   1.383       .  D
C53         C270   1.522       .  S
C54         C413   1.547       .  S
C54         C340   1.514       .  S
C55        C1141   1.549       .  S
C55         C326   1.519       .  S
C56         C777   1.550       .  S
C56         C351   1.517       .  S
Zn57         O61   1.953       .  S
Zn57         O62   1.995       .  S
Zn57         O66   2.008       .  S
Zn57         O73   1.990       .  S
Zn58         O61   1.968       .  S
Zn58         O63   2.063       .  S
Zn58         O65   2.066       .  S
Zn58         O69   2.067       .  S
Zn59         O61   1.952       .  S
Zn59         O64   1.989       .  S
Zn59         O67   1.988       .  S
Zn59         O70   1.991       .  S
Zn60         O61   1.956       .  S
Zn60         O68   1.996       .  S
Zn60         O71   1.997       .  S
Zn60         O72   1.999       .  S
O62          C74   1.272       .  A
O63          C75   1.280       .  A
O64          C76   1.269       .  A
O65          C74   1.280       .  A
O66          C76   1.271       .  A
O67          C75   1.271       .  A
O68          C77   1.270       .  A
O69          C78   1.281       .  A
O70          C77   1.269       .  A
O71          C78   1.272       .  A
O72          C79   1.270       .  A
O73          C79   1.269       .  A
C74         C172   1.492       .  S
C75         C186   1.494       .  S
C76         C211   1.479       .  S
C77         C200   1.477       .  S
C78         C155   1.493       .  S
C79         C228   1.478       .  S
Zn80         O84   1.962       .  S
Zn80         O85   2.021       .  S
Zn80         O89   2.044       .  S
Zn80         O96   2.016       .  S
Zn81         O84   1.964       .  S
Zn81         O86   2.055       .  S
Zn81         O88   2.032       .  S
Zn81         O92   2.035       .  S
Zn82         O84   1.908       .  S
Zn82         O87   1.913       .  S
Zn82         O90   1.911       .  S
Zn82         O93   1.916       .  S
Zn83         O84   1.965       .  S
Zn83         O91   2.049       .  S
Zn83         O94   2.024       .  S
Zn83         O95   2.028       .  S
O85          C97   1.276       .  A
O86          C98   1.275       .  A
O87          C99   1.258       .  A
O88          C97   1.277       .  A
O89          C99   1.273       .  A
O90          C98   1.258       .  A
O91         C100   1.275       .  A
O92         C101   1.278       .  A
O93         C100   1.259       .  A
O94         C101   1.276       .  A
O95         C102   1.277       .  A
O96         C102   1.275       .  A
C97         C130   1.497       .  S
C98         C295   1.469       .  S
C99         C309   1.468       .  S
C100        C284   1.474       .  S
C101        C141   1.494       .  S
C102        C116   1.496       .  S
C103        H104   1.109   1_545  S
C103        C109   1.549       .  S
C103        C472   1.551   1_545  S
C103       C1199   1.547   1_445  S
C105        H106   1.109       .  S
C105        C112   1.552       .  S
C105        C475   1.555   1_545  S
C105       C1202   1.554   1_445  S
C107       C1195   1.547       .  S
C107        C110   1.382       .  D
C107        C127   1.517       .  S
C108        C467   1.551       .  S
C108        C111   1.385       .  D
C108        C144   1.521       .  S
C109        C112   1.381       .  D
C109        C113   1.513       .  S
C110       C1197   1.554       .  S
C110        C158   1.519       .  S
C111        C469   1.555       .  S
C111        C183   1.520       .  S
C112        C169   1.520       .  S
C113        C114   1.419       .  A
C113        C118   1.420       .  A
C114        C115   1.414       .  A
C114        C847   1.448   1_455  S
C115        C116   1.415       .  A
C115        C122   1.453       .  S
C116        C117   1.413       .  A
C117        C118   1.412       .  A
C117        C120   1.453       .  S
C118        C121   1.448       .  S
C119        C842   1.448       .  S
C119        N126   1.156       .  T
C120        N125   1.157       .  T
C121        N123   1.156       .  T
C122        N124   1.158       .  T
C127        C128   1.422       .  A
C127        C132   1.420       .  A
C128        C129   1.414       .  A
C128        C133   1.448       .  S
C129        C130   1.412       .  A
C129        C136   1.452       .  S
C130        C131   1.415       .  A
C131        C132   1.414       .  A
C131        C134   1.454       .  S
C132        C135   1.448       .  S
C133        N140   1.157       .  T
C134        N139   1.158       .  T
C135        N137   1.156       .  T
C136        N138   1.157       .  T
C141        C142   1.411       .  A
C141        C146   1.411       .  A
C142        C143   1.415       .  A
C142        C147   1.452       .  S
C143        C144   1.425       .  A
C143        C878   1.448   1_455  S
C144        C145   1.422       .  A
C145        C146   1.414       .  A
C145        C148   1.448       .  S
C146        C149   1.453       .  S
C147        N154   1.157       .  T
C148        N517   1.156       .  T
C149        N151   1.157       .  T
C150        C871   1.448       .  S
C150        N152   1.157       .  T
N153        C512   1.156       .  T
C155        C156   1.414       .  A
C155        C160   1.409       .  A
C156        C157   1.416       .  A
C156        C161   1.453       .  S
C157        C158   1.420       .  A
C157        C528   1.448       .  S
C158        C159   1.423       .  A
C159        C160   1.414       .  A
C159        C162   1.448       .  S
C160        C163   1.452       .  S
C161        N532   1.157       .  T
C162        N167   1.156       .  T
C163        N165   1.157       .  T
C164        C521   1.448   1_545  S
C164        N166   1.157       .  T
N168        C525   1.157   1_545  T
C169        C170   1.420       .  A
C169        C174   1.425       .  A
C170        C171   1.415       .  A
C170        C175   1.448       .  S
C171        C172   1.412       .  A
C171        C178   1.453       .  S
C172        C173   1.407       .  A
C173        C174   1.416       .  A
C173        C176   1.452       .  S
C174        C177   1.447   1_455  S
C175        N182   1.156       .  T
C176        N181   1.157       .  T
C177        N907   1.156       .  T
C178        N180   1.157       .  T
N179        C905   1.156       .  T
C183        C184   1.424       .  A
C183        C188   1.421       .  A
C184        C185   1.414       .  A
C184        C553   1.448       .  S
C185        C186   1.409       .  A
C185        C192   1.452       .  S
C186        C187   1.414       .  A
C187        C188   1.415       .  A
C187        C190   1.454       .  S
C188        C919   1.448   1_455  S
C189        C548   1.448   1_545  S
C189        N196   1.157       .  T
C190        N923   1.158       .  T
C191        C916   1.448       .  S
C191        N193   1.157       .  T
C192        N558   1.157       .  T
N194        C556   1.157       .  T
N195        C918   1.158       .  T
C197        C198   1.416       .  A
C197        C202   1.410   1_545  A
C198        C563   1.408       .  A
C198        C203   1.453       .  S
C199        C200   1.410       .  A
C199        C562   1.408       .  A
C199        C206   1.452       .  S
C200        C201   1.416       .  A
C201        C566   1.408       .  A
C201        C204   1.453       .  S
C202        C565   1.408       .  A
C202        C205   1.452       .  S
C203        N210   1.158       .  T
C204        N209   1.158       .  T
C205        N207   1.157       .  T
C206        N208   1.157       .  T
C211        C212   1.409   1_455  A
C211        C216   1.417       .  A
C212        C941   1.409       .  A
C212        C217   1.452       .  S
C213        C214   1.417       .  A
C213        C940   1.409       .  A
C213        C220   1.453       .  S
C214        C215   1.410       .  A
C215        C944   1.409       .  A
C215        C218   1.452       .  S
C216        C943   1.409       .  A
C216        C219   1.453       .  S
C217        N224   1.157       .  T
C218        N223   1.157       .  T
C219        N221   1.158       .  T
C220        N222   1.158       .  T
C225        C226   1.417       .  A
C225        C230   1.410       .  A
C226        C227   1.409       .  A
C226        C231   1.453       .  S
C227        C228   1.410       .  A
C227        C234   1.452       .  S
C228        C229   1.416       .  A
C229        C230   1.407       .  A
C229        C232   1.453       .  S
C230        C233   1.452       .  S
C231        N238   1.158       .  T
C232        N237   1.158       .  T
C233        N235   1.157       .  T
C234        N236   1.157       .  T
C239        C240   1.409       .  A
C239        C244   1.413       .  A
C240        C241   1.416       .  A
C240        C245   1.452       .  S
C241        C242   1.425       .  A
C241        C248   1.448   1_545  S
C242        C243   1.421       .  A
C243        C244   1.415       .  A
C243        C246   1.448       .  S
C244        C247   1.454       .  S
C245        N252   1.157       .  T
C246        N251   1.156       .  T
C247        N249   1.157       .  T
C248        N250   1.157       .  T
C253        C254   1.408       .  A
C253        C258   1.414       .  A
C254        C255   1.416       .  A
C254        C259   1.452       .  S
C255        C256   1.424       .  A
C255        C262   1.447       .  S
C256        C257   1.420       .  A
C257        C258   1.417       .  A
C257        C260   1.448   1_545  S
C258        C261   1.453       .  S
C259        N266   1.157       .  T
C260        N265   1.157       .  T
C261        N263   1.158   1_545  T
C262        N264   1.156       .  T
C267        C268   1.413       .  A
C267        C272   1.409       .  A
C268        C269   1.416       .  A
C268        C273   1.453       .  S
C269        C270   1.420       .  A
C269        C276   1.448       .  S
C270        C271   1.425       .  A
C271        C272   1.417       .  A
C271       C1002   1.448       .  S
C272        C275   1.452       .  S
C273        N280   1.157       .  T
C274        C999   1.448   1_455  S
C274        N279   1.157       .  T
C275        N277   1.157       .  T
C276        N278   1.156       .  T
C281        C282   1.419   1_556  A
C281       C1014   1.408       .  A
C282        C283   1.407       .  A
C282        C287   1.454       .  S
C283       C1012   1.408       .  A
C283        C290   1.452       .  S
C284        C285   1.418       .  A
C284       C1011   1.408   1_455  A
C285        C286   1.406   1_554  A
C285        C288   1.453       .  S
C286       C1009   1.408   1_455  A
C286        C289   1.452       .  S
C287        N294   1.158       .  T
C288        N293   1.158       .  T
C289        N291   1.157       .  T
C290        N292   1.157       .  T
C295        C296   1.416       .  A
C295        C300   1.407       .  A
C296        C297   1.407   1_554  A
C296        C301   1.453       .  S
C297        C662   1.407       .  A
C297        C304   1.452       .  S
C298        C299   1.415   1_556  A
C298        C661   1.407   1_545  A
C299        C664   1.406       .  A
C299        C302   1.453       .  S
C300        C663   1.406       .  A
C300        C667   1.451       .  S
C301        N308   1.157       .  T
C302        N307   1.157       .  T
C303        C664   1.451       .  S
C303        N305   1.157       .  T
C304        N306   1.157       .  T
C309        C310   1.407       .  A
C309        C314   1.415       .  A
C310        C311   1.406       .  A
C310        C315   1.452       .  S
C311        C312   1.416   1_554  A
C311        C318   1.453       .  S
C312        C313   1.408       .  A
C313        C314   1.405   1_556  A
C313        C316   1.452       .  S
C314        C317   1.453       .  S
C315        N322   1.157       .  T
C316        N321   1.157       .  T
C317        N319   1.157       .  T
C318        N320   1.157       .  T
C323        C324   1.413       .  A
C323        C328   1.410       .  A
C324        C325   1.414       .  A
C324        C329   1.454       .  S
C325        C326   1.421       .  A
C325        C696   1.448   1_545  S
C326        C327   1.424       .  A
C327        C328   1.413       .  A
C327       C1058   1.448       .  S
C328        C331   1.452       .  S
C329        N700   1.158       .  T
C330       C1055   1.448   1_455  S
C330        N335   1.157       .  T
C331       N1061   1.157       .  T
C332        C689   1.448       .  S
C332        N334   1.157       .  T
N333       C1059   1.157       .  T
N336        C693   1.158       .  T
C337        C338   1.413       .  A
C337        C342   1.414       .  A
C338        C339   1.413       .  A
C338        C343   1.453       .  S
C339        C340   1.421       .  A
C339        C710   1.448   1_545  S
C340        C341   1.420       .  A
C341        C342   1.413       .  A
C341        C344   1.448       .  S
C342        C345   1.454       .  S
C343        N350   1.157       .  T
C344        N349   1.156       .  T
C345        N347   1.158       .  T
C346        C703   1.448       .  S
C346        N348   1.157       .  T
C351        C352   1.421       .  A
C351        C356   1.420       .  A
C352        C353   1.414       .  A
C352        C357   1.448       .  S
C353        C354   1.413       .  A
C353        C360   1.452       .  S
C354        C355   1.414       .  A
C355        C356   1.415       .  A
C355        C358   1.453       .  S
C356       C1087   1.448       .  S
C357        N364   1.157       .  T
C358       N1091   1.157       .  T
C359       C1084   1.448   1_455  S
C359        N361   1.157       .  T
C360        N362   1.157       .  T
N363       C1086   1.157       .  T
Zn365       O369   1.964       .  S
Zn365       O370   2.022       .  S
Zn365       O374   2.016       .  S
Zn365       O381   2.052       .  S
Zn366       O369   1.963       .  S
Zn366       O371   2.032       .  S
Zn366       O373   2.030       .  S
Zn366       O377   2.052       .  S
Zn367       O369   1.963       .  S
Zn367       O372   2.024       .  S
Zn367       O375   2.027       .  S
Zn367       O378   2.050       .  S
Zn368       O369   1.907       .  S
Zn368       O376   1.911       .  S
Zn368       O379   1.908       .  S
Zn368       O380   1.909       .  S
O370        C382   1.277       .  A
O371        C383   1.277       .  A
O372        C384   1.277       .  A
O373        C382   1.277       .  A
O374        C384   1.276       .  A
O375        C383   1.276       .  A
O376        C385   1.258       .  A
O377        C386   1.275       .  A
O378        C385   1.275       .  A
O379        C386   1.258       .  A
O380        C387   1.257       .  A
O381        C387   1.274       .  A
C382        C687   1.494       .  S
C383        C718   1.497       .  S
C384        C701   1.494       .  S
C385        C676   1.469       .  S
C386        C645   1.473       .  S
C387        C662   1.469       .  S
Zn388       O392   1.971       .  S
Zn388       O393   2.072       .  S
Zn388       O397   2.073       .  S
Zn388       O404   2.068       .  S
Zn389       O392   1.955       .  S
Zn389       O394   1.993       .  S
Zn389       O396   1.999       .  S
Zn389       O400   1.991       .  S
Zn390       O392   1.958       .  S
Zn390       O395   2.003       .  S
Zn390       O398   1.997       .  S
Zn390       O401   2.005       .  S
Zn391       O392   1.954       .  S
Zn391       O399   1.998       .  S
Zn391       O402   1.998       .  S
Zn391       O403   1.995       .  S
O393        C405   1.281       .  A
O394        C406   1.270       .  A
O395        C407   1.273       .  A
O396        C405   1.272       .  A
O397        C407   1.282       .  A
O398        C406   1.270       .  A
O399        C408   1.270       .  A
O400        C409   1.269       .  A
O401        C408   1.270       .  A
O402        C409   1.269       .  A
O403        C410   1.273       .  A
O404        C410   1.281       .  A
C405        C617   1.496       .  S
C406        C589   1.478       .  S
C407        C631   1.497       .  S
C408        C578   1.480       .  S
C409        C561   1.477       .  S
C410        C603   1.495       .  S
C411        H412   1.110       .  S
C411        C781   1.554       .  S
C411       C1144   1.556       .  S
C411        C415   1.555   1_655  S
C413        H414   1.109       .  S
C413        C783   1.549   1_455  S
C413       C1148   1.550   1_445  S
C415        C418   1.382       .  D
C415        C620   1.522       .  S
C416       C1139   1.556       .  S
C416        C419   1.384       .  D
C416        C606   1.521       .  S
C417        C775   1.554   1_565  S
C417        C420   1.383       .  D
C417        C634   1.522       .  S
C418        C704   1.514       .  S
C419        C777   1.549       .  S
C419        C690   1.519       .  S
C420       C1141   1.550   1_565  S
C420        C715   1.517       .  S
Zn421       O425   1.953       .  S
Zn421       O426   1.995       .  S
Zn421       O430   2.008       .  S
Zn421       O437   1.990       .  S
Zn422       O425   1.968       .  S
Zn422       O427   2.063       .  S
Zn422       O429   2.066       .  S
Zn422       O433   2.067       .  S
Zn423       O425   1.952       .  S
Zn423       O428   1.989       .  S
Zn423       O431   1.988       .  S
Zn423       O434   1.991       .  S
Zn424       O425   1.956       .  S
Zn424       O432   1.996       .  S
Zn424       O435   1.997       .  S
Zn424       O436   1.999       .  S
O426        C438   1.272       .  A
O427        C439   1.280       .  A
O428        C440   1.269       .  A
O429        C438   1.280       .  A
O430        C440   1.271       .  A
O431        C439   1.271       .  A
O432        C441   1.270       .  A
O433        C442   1.281       .  A
O434        C441   1.269       .  A
O435        C442   1.272       .  A
O436        C443   1.270       .  A
O437        C443   1.269       .  A
C438        C536   1.492       .  S
C439        C550   1.494       .  S
C440        C575   1.479       .  S
C441        C564   1.477       .  S
C442        C519   1.493       .  S
C443        C592   1.478       .  S
Zn444       O448   1.962       .  S
Zn444       O449   2.021       .  S
Zn444       O453   2.044       .  S
Zn444       O460   2.016       .  S
Zn445       O448   1.964       .  S
Zn445       O450   2.055       .  S
Zn445       O452   2.032       .  S
Zn445       O456   2.035       .  S
Zn446       O448   1.908       .  S
Zn446       O451   1.913       .  S
Zn446       O454   1.911       .  S
Zn446       O457   1.916       .  S
Zn447       O448   1.965       .  S
Zn447       O455   2.049       .  S
Zn447       O458   2.024       .  S
Zn447       O459   2.028       .  S
O449        C461   1.276       .  A
O450        C462   1.275       .  A
O451        C463   1.258       .  A
O452        C461   1.277       .  A
O453        C463   1.273       .  A
O454        C462   1.258       .  A
O455        C464   1.275       .  A
O456        C465   1.278       .  A
O457        C464   1.259       .  A
O458        C465   1.276       .  A
O459        C466   1.277       .  A
O460        C466   1.275       .  A
C461        C494   1.497       .  S
C462        C659   1.469       .  S
C463        C673   1.468       .  S
C464        C648   1.474       .  S
C465        C505   1.494       .  S
C466        C480   1.496       .  S
C467        H468   1.109       .  S
C467        C473   1.549       .  S
C467        C835   1.547   1_455  S
C469        H470   1.109       .  S
C469        C838   1.554   1_455  S
C469        C476   1.552       .  S
C471        C831   1.547   1_565  S
C471        C474   1.382       .  D
C471        C491   1.517       .  S
C472        C475   1.385       .  D
C472        C508   1.521       .  S
C473        C476   1.381       .  D
C473        C477   1.513       .  S
C474        C833   1.554   1_565  S
C474        C522   1.519       .  S
C475        C547   1.520       .  S
C476        C533   1.520       .  S
C477        C478   1.419       .  A
C477        C482   1.420       .  A
C478        C479   1.414       .  A
C478       C1211   1.448   1_455  S
C479        C480   1.415       .  A
C479        C486   1.453       .  S
C480        C481   1.413       .  A
C481        C482   1.412       .  A
C481        C484   1.453       .  S
C482        C485   1.448       .  S
C483       C1206   1.448       .  S
C483        N490   1.156       .  T
C484        N489   1.157       .  T
C485        N487   1.156       .  T
C486        N488   1.158       .  T
C491        C492   1.422       .  A
C491        C496   1.420       .  A
C492        C493   1.414       .  A
C492        C497   1.448   1_565  S
C493        C494   1.412       .  A
C493        C500   1.452       .  S
C494        C495   1.415       .  A
C495        C496   1.414       .  A
C495        C498   1.454       .  S
C496        C499   1.448       .  S
C497        N504   1.157       .  T
C498        N503   1.158       .  T
C499        N501   1.156       .  T
C500        N502   1.157       .  T
C505        C506   1.411       .  A
C505        C510   1.411       .  A
C506        C507   1.415       .  A
C506        C511   1.452       .  S
C507        C508   1.425       .  A
C507       C1242   1.448   1_455  S
C508        C509   1.422       .  A
C509        C510   1.414       .  A
C509        C512   1.448   1_565  S
C510        C513   1.453       .  S
C511        N518   1.157       .  T
C513        N515   1.157       .  T
C514       C1235   1.448       .  S
C514        N516   1.157       .  T
C519        C520   1.414       .  A
C519        C524   1.409       .  A
C520        C521   1.416       .  A
C520        C525   1.453       .  S
C521        C522   1.420       .  A
C522        C523   1.423       .  A
C523        C524   1.414       .  A
C523        C526   1.448       .  S
C524        C527   1.452       .  S
C526        N531   1.156       .  T
C527        N529   1.157       .  T
C528        N530   1.157       .  T
C533        C534   1.420       .  A
C533        C538   1.425       .  A
C534        C535   1.415       .  A
C534        C539   1.448       .  S
C535        C536   1.412       .  A
C535        C542   1.453       .  S
C536        C537   1.407       .  A
C537        C538   1.416       .  A
C537        C540   1.452       .  S
C538        C541   1.447   1_455  S
C539        N546   1.156       .  T
C540        N545   1.157       .  T
C541       N1271   1.156       .  T
C542        N544   1.157       .  T
N543       C1269   1.156       .  T
C547        C548   1.424       .  A
C547        C552   1.421       .  A
C548        C549   1.414       .  A
C549        C550   1.409       .  A
C549        C556   1.452       .  S
C550        C551   1.414       .  A
C551        C552   1.415       .  A
C551        C554   1.454       .  S
C552       C1283   1.448   1_455  S
C553        N560   1.157       .  T
C554       N1287   1.158       .  T
C555       C1280   1.448       .  S
C555        N557   1.157       .  T
N559       C1282   1.158       .  T
C561        C562   1.416       .  A
C561        C566   1.410       .  A
C562        C567   1.453       .  S
C563        C564   1.410   1_545  A
C563        C570   1.452       .  S
C564        C565   1.416       .  A
C565        C568   1.453       .  S
C566        C569   1.452       .  S
C567        N574   1.158       .  T
C568        N573   1.158       .  T
C569        N571   1.157       .  T
C570        N572   1.157       .  T
C575        C576   1.409   1_455  A
C575        C580   1.417       .  A
C576       C1305   1.409       .  A
C576        C581   1.452       .  S
C577       C1304   1.409       .  A
C577        C578   1.417       .  A
C577        C584   1.453       .  S
C578        C579   1.410       .  A
C579       C1308   1.409       .  A
C579        C582   1.452       .  S
C580       C1307   1.409       .  A
C580        C583   1.453       .  S
C581        N588   1.157       .  T
C582        N587   1.157       .  T
C583        N585   1.158       .  T
C584        N586   1.158       .  T
C589        C590   1.417       .  A
C589        C594   1.410       .  A
C590        C591   1.409       .  A
C590        C595   1.453       .  S
C591        C592   1.410       .  A
C591        C598   1.452       .  S
C592        C593   1.416       .  A
C593        C594   1.407       .  A
C593        C596   1.453       .  S
C594        C597   1.452       .  S
C595        N602   1.158       .  T
C596        N601   1.158       .  T
C597        N599   1.157       .  T
C598        N600   1.157       .  T
C603        C604   1.409       .  A
C603        C608   1.413       .  A
C604        C605   1.416       .  A
C604        C609   1.452       .  S
C605        C606   1.425       .  A
C605        C612   1.448       .  S
C606        C607   1.421       .  A
C607        C608   1.415       .  A
C607        C610   1.448       .  S
C608        C611   1.454       .  S
C609        N616   1.157       .  T
C610        N615   1.156       .  T
C611        N613   1.157       .  T
C612        N614   1.157       .  T
C617        C618   1.408       .  A
C617        C622   1.414       .  A
C618        C619   1.416       .  A
C618        C623   1.452       .  S
C619        C620   1.424       .  A
C619        C626   1.447       .  S
C620        C621   1.420       .  A
C621        C622   1.417       .  A
C621        C624   1.448       .  S
C622        C625   1.453       .  S
C623        N630   1.157       .  T
C624        N629   1.157       .  T
C625        N627   1.158       .  T
C626        N628   1.156       .  T
C631        C632   1.413       .  A
C631        C636   1.409       .  A
C632        C633   1.416       .  A
C632        C637   1.453       .  S
C633        C634   1.420       .  A
C633        C640   1.448       .  S
C634        C635   1.425       .  A
C635        C636   1.417       .  A
C635       C1366   1.448       .  S
C636        C639   1.452       .  S
C637        N644   1.157       .  T
C638       C1363   1.448   1_455  S
C638        N643   1.157       .  T
C639        N641   1.157       .  T
C640        N642   1.156       .  T
C645        C646   1.419   1_556  A
C645       C1378   1.408       .  A
C646        C647   1.407       .  A
C646        C651   1.454       .  S
C647       C1376   1.408       .  A
C647        C654   1.452       .  S
C648       C1375   1.408   1_455  A
C648        C649   1.418       .  A
C649        C650   1.406   1_554  A
C649        C652   1.453       .  S
C650       C1373   1.408   1_455  A
C650        C653   1.452       .  S
C651        N658   1.158       .  T
C652        N657   1.158       .  T
C653        N655   1.157       .  T
C654        N656   1.157       .  T
C659        C660   1.416       .  A
C659        C664   1.407   1_565  A
C660        C661   1.407   1_554  A
C660        C665   1.453       .  S
C661        C668   1.452       .  S
C662        C663   1.415   1_556  A
C663        C666   1.453       .  S
C665        N672   1.157       .  T
C666        N671   1.157       .  T
C667        N669   1.157       .  T
C668        N670   1.157       .  T
C673        C674   1.407       .  A
C673        C678   1.415       .  A
C674        C675   1.406       .  A
C674        C679   1.452       .  S
C675        C676   1.416   1_554  A
C675        C682   1.453       .  S
C676        C677   1.408       .  A
C677        C678   1.405   1_556  A
C677        C680   1.452       .  S
C678        C681   1.453       .  S
C679        N686   1.157       .  T
C680        N685   1.157       .  T
C681        N683   1.157       .  T
C682        N684   1.157       .  T
C687        C688   1.413       .  A
C687        C692   1.410       .  A
C688        C689   1.414       .  A
C688        C693   1.454       .  S
C689        C690   1.421       .  A
C690        C691   1.424       .  A
C691        C692   1.413       .  A
C691       C1422   1.448       .  S
C692        C695   1.452       .  S
C694       C1419   1.448   1_455  S
C694        N699   1.157       .  T
C695       N1425   1.157       .  T
C696        N698   1.157       .  T
N697       C1423   1.157       .  T
C701        C702   1.413       .  A
C701        C706   1.414       .  A
C702        C703   1.413       .  A
C702        C707   1.453       .  S
C703        C704   1.421       .  A
C704        C705   1.420       .  A
C705        C706   1.413       .  A
C705        C708   1.448       .  S
C706        C709   1.454       .  S
C707        N714   1.157       .  T
C708        N713   1.156       .  T
C709        N711   1.158       .  T
C710        N712   1.157       .  T
C715        C716   1.421       .  A
C715        C720   1.420       .  A
C716        C717   1.414       .  A
C716        C721   1.448       .  S
C717        C718   1.413       .  A
C717        C724   1.452       .  S
C718        C719   1.414       .  A
C719        C720   1.415       .  A
C719        C722   1.453       .  S
C720       C1451   1.448       .  S
C721        N728   1.157       .  T
C722       N1455   1.157       .  T
C723       C1448   1.448   1_455  S
C723        N725   1.157       .  T
C724        N726   1.157       .  T
N727       C1450   1.157       .  T
Zn729       O733   1.964       .  S
Zn729       O734   2.022       .  S
Zn729       O738   2.016       .  S
Zn729       O745   2.052       .  S
Zn730       O733   1.963       .  S
Zn730       O735   2.032       .  S
Zn730       O737   2.030       .  S
Zn730       O741   2.052       .  S
Zn731       O733   1.963       .  S
Zn731       O736   2.024       .  S
Zn731       O739   2.027       .  S
Zn731       O742   2.050       .  S
Zn732       O733   1.907       .  S
Zn732       O740   1.911       .  S
Zn732       O743   1.908       .  S
Zn732       O744   1.909       .  S
O734        C746   1.277       .  A
O735        C747   1.277       .  A
O736        C748   1.277       .  A
O737        C746   1.277       .  A
O738        C748   1.276       .  A
O739        C747   1.276       .  A
O740        C749   1.258       .  A
O741        C750   1.275       .  A
O742        C749   1.275       .  A
O743        C750   1.258       .  A
O744        C751   1.257       .  A
O745        C751   1.274       .  A
C746       C1051   1.494       .  S
C747       C1082   1.497       .  S
C748       C1065   1.494       .  S
C749       C1040   1.469       .  S
C750       C1009   1.473       .  S
C751       C1026   1.469       .  S
Zn752       O756   1.971       .  S
Zn752       O757   2.072       .  S
Zn752       O761   2.073       .  S
Zn752       O768   2.068       .  S
Zn753       O756   1.955       .  S
Zn753       O758   1.993       .  S
Zn753       O760   1.999       .  S
Zn753       O764   1.991       .  S
Zn754       O756   1.958       .  S
Zn754       O759   2.003       .  S
Zn754       O762   1.997       .  S
Zn754       O765   2.005       .  S
Zn755       O756   1.954       .  S
Zn755       O763   1.998       .  S
Zn755       O766   1.998       .  S
Zn755       O767   1.995       .  S
O757        C769   1.281       .  A
O758        C770   1.270       .  A
O759        C771   1.273       .  A
O760        C769   1.272       .  A
O761        C771   1.282       .  A
O762        C770   1.270       .  A
O763        C772   1.270       .  A
O764        C773   1.269       .  A
O765        C772   1.270       .  A
O766        C773   1.269       .  A
O767        C774   1.273       .  A
O768        C774   1.281       .  A
C769        C981   1.496       .  S
C770        C953   1.478       .  S
C771        C995   1.497       .  S
C772        C942   1.480       .  S
C773        C925   1.477       .  S
C774        C967   1.495       .  S
C775        H776   1.110   1_545  S
C775        C779   1.555       .  S
C777        H778   1.109       .  S
C777       C1146   1.547       .  S
C779        C782   1.382       .  D
C779        C984   1.522       .  S
C780        C783   1.384       .  D
C780        C970   1.521       .  S
C781        C784   1.383       .  D
C781        C998   1.522       .  S
C782       C1141   1.547       .  S
C782       C1068   1.514       .  S
C783       C1054   1.519       .  S
C784       C1079   1.517       .  S
Zn785       O789   1.953       .  S
Zn785       O790   1.995       .  S
Zn785       O794   2.008       .  S
Zn785       O801   1.990       .  S
Zn786       O789   1.968       .  S
Zn786       O791   2.063       .  S
Zn786       O793   2.066       .  S
Zn786       O797   2.067       .  S
Zn787       O789   1.952       .  S
Zn787       O792   1.989       .  S
Zn787       O795   1.988       .  S
Zn787       O798   1.991       .  S
Zn788       O789   1.956       .  S
Zn788       O796   1.996       .  S
Zn788       O799   1.997       .  S
Zn788       O800   1.999       .  S
O790        C802   1.272       .  A
O791        C803   1.280       .  A
O792        C804   1.269       .  A
O793        C802   1.280       .  A
O794        C804   1.271       .  A
O795        C803   1.271       .  A
O796        C805   1.270       .  A
O797        C806   1.281       .  A
O798        C805   1.269       .  A
O799        C806   1.272       .  A
O800        C807   1.270       .  A
O801        C807   1.269       .  A
C802        C900   1.492       .  S
C803        C914   1.494       .  S
C804        C939   1.479       .  S
C805        C928   1.477       .  S
C806        C883   1.493       .  S
C807        C956   1.478       .  S
Zn808       O812   1.962       .  S
Zn808       O813   2.021       .  S
Zn808       O817   2.044       .  S
Zn808       O824   2.016       .  S
Zn809       O812   1.964       .  S
Zn809       O814   2.055       .  S
Zn809       O816   2.032       .  S
Zn809       O820   2.035       .  S
Zn810       O812   1.908       .  S
Zn810       O815   1.913       .  S
Zn810       O818   1.911       .  S
Zn810       O821   1.916       .  S
Zn811       O812   1.965       .  S
Zn811       O819   2.049       .  S
Zn811       O822   2.024       .  S
Zn811       O823   2.028       .  S
O813        C825   1.276       .  A
O814        C826   1.275       .  A
O815        C827   1.258       .  A
O816        C825   1.277       .  A
O817        C827   1.273       .  A
O818        C826   1.258       .  A
O819        C828   1.275       .  A
O820        C829   1.278       .  A
O821        C828   1.259       .  A
O822        C829   1.276       .  A
O823        C830   1.277       .  A
O824        C830   1.275       .  A
C825        C858   1.497       .  S
C826       C1023   1.469       .  S
C827       C1037   1.468       .  S
C828       C1012   1.474       .  S
C829        C869   1.494       .  S
C830        C844   1.496       .  S
C831        H832   1.109   1_545  S
C831        C837   1.549       .  S
C831       C1200   1.551   1_545  S
C833        H834   1.109       .  S
C833       C1203   1.555   1_545  S
C833        C840   1.552       .  S
C835        C838   1.382       .  D
C835        C855   1.517       .  S
C836       C1195   1.551       .  S
C836        C839   1.385       .  D
C836        C872   1.521       .  S
C837        C840   1.381       .  D
C837        C841   1.513       .  S
C838        C886   1.519       .  S
C839       C1197   1.555       .  S
C839        C911   1.520       .  S
C840        C897   1.520       .  S
C841        C842   1.419       .  A
C841        C846   1.420       .  A
C842        C843   1.414       .  A
C843        C844   1.415       .  A
C843        C850   1.453       .  S
C844        C845   1.413       .  A
C845        C846   1.412       .  A
C845        C848   1.453       .  S
C846        C849   1.448       .  S
C847        N854   1.156       .  T
C848        N853   1.157       .  T
C849        N851   1.156       .  T
C850        N852   1.158       .  T
C855        C856   1.422       .  A
C855        C860   1.420       .  A
C856        C857   1.414       .  A
C856        C861   1.448       .  S
C857        C858   1.412       .  A
C857        C864   1.452       .  S
C858        C859   1.415       .  A
C859        C860   1.414       .  A
C859        C862   1.454       .  S
C860        C863   1.448       .  S
C861        N868   1.157       .  T
C862        N867   1.158       .  T
C863        N865   1.156       .  T
C864        N866   1.157       .  T
C869        C870   1.411       .  A
C869        C874   1.411       .  A
C870        C871   1.415       .  A
C870        C875   1.452       .  S
C871        C872   1.425       .  A
C872        C873   1.422       .  A
C873        C874   1.414       .  A
C873        C876   1.448       .  S
C874        C877   1.453       .  S
C875        N882   1.157       .  T
C876       N1245   1.156       .  T
C877        N879   1.157       .  T
C878        N880   1.157       .  T
N881       C1240   1.156       .  T
C883        C884   1.414       .  A
C883        C888   1.409       .  A
C884        C885   1.416       .  A
C884        C889   1.453       .  S
C885        C886   1.420       .  A
C885       C1256   1.448       .  S
C886        C887   1.423       .  A
C887        C888   1.414       .  A
C887        C890   1.448       .  S
C888        C891   1.452       .  S
C889       N1260   1.157       .  T
C890        N895   1.156       .  T
C891        N893   1.157       .  T
C892       C1249   1.448   1_545  S
C892        N894   1.157       .  T
N896       C1253   1.157   1_545  T
C897        C898   1.420       .  A
C897        C902   1.425       .  A
C898        C899   1.415       .  A
C898        C903   1.448       .  S
C899        C900   1.412       .  A
C899        C906   1.453       .  S
C900        C901   1.407       .  A
C901        C902   1.416       .  A
C901        C904   1.452       .  S
C902        C905   1.447       .  S
C903        N910   1.156       .  T
C904        N909   1.157       .  T
C906        N908   1.157       .  T
C911        C912   1.424       .  A
C911        C916   1.421       .  A
C912        C913   1.414       .  A
C912       C1281   1.448       .  S
C913        C914   1.409       .  A
C913        C920   1.452       .  S
C914        C915   1.414       .  A
C915        C916   1.415       .  A
C915        C918   1.454       .  S
C917       C1276   1.448   1_545  S
C917        N924   1.157       .  T
C919        N921   1.157       .  T
C920       N1286   1.157       .  T
N922       C1284   1.157       .  T
C925        C926   1.416       .  A
C925        C930   1.410   1_545  A
C926       C1291   1.408       .  A
C926        C931   1.453       .  S
C927       C1290   1.408       .  A
C927        C928   1.410       .  A
C927        C934   1.452       .  S
C928        C929   1.416       .  A
C929       C1294   1.408       .  A
C929        C932   1.453       .  S
C930       C1293   1.408       .  A
C930        C933   1.452       .  S
C931        N938   1.158       .  T
C932        N937   1.158       .  T
C933        N935   1.157       .  T
C934        N936   1.157       .  T
C939        C940   1.409       .  A
C939        C944   1.417       .  A
C940        C945   1.452       .  S
C941        C942   1.417       .  A
C941        C948   1.453       .  S
C942        C943   1.410   1_655  A
C943        C946   1.452       .  S
C944        C947   1.453       .  S
C945        N952   1.157       .  T
C946        N951   1.157       .  T
C947        N949   1.158       .  T
C948        N950   1.158       .  T
C953        C954   1.417       .  A
C953        C958   1.410       .  A
C954        C955   1.409       .  A
C954        C959   1.453       .  S
C955        C956   1.410       .  A
C955        C962   1.452       .  S
C956        C957   1.416       .  A
C957        C958   1.407       .  A
C957        C960   1.453       .  S
C958        C961   1.452       .  S
C959        N966   1.158       .  T
C960        N965   1.158       .  T
C961        N963   1.157       .  T
C962        N964   1.157       .  T
C967        C968   1.409       .  A
C967        C972   1.413       .  A
C968        C969   1.416       .  A
C968        C973   1.452       .  S
C969        C970   1.425       .  A
C969        C976   1.448   1_545  S
C970        C971   1.421       .  A
C971        C972   1.415       .  A
C971        C974   1.448   1_655  S
C972        C975   1.454       .  S
C973        N980   1.157       .  T
C974        N979   1.156       .  T
C975        N977   1.157   1_655  T
C976        N978   1.157       .  T
C981        C982   1.408       .  A
C981        C986   1.414       .  A
C982        C983   1.416       .  A
C982        C987   1.452       .  S
C983        C984   1.424       .  A
C983        C990   1.447       .  S
C984        C985   1.420       .  A
C985        C986   1.417       .  A
C985        C988   1.448   1_545  S
C986        C989   1.453       .  S
C987        N994   1.157       .  T
C988        N993   1.157       .  T
C989        N991   1.158   1_545  T
C990        N992   1.156       .  T
C995        C996   1.413       .  A
C995       C1000   1.409       .  A
C996        C997   1.416       .  A
C996       C1001   1.453       .  S
C997        C998   1.420       .  A
C997       C1004   1.448       .  S
C998        C999   1.425       .  A
C999       C1000   1.417       .  A
C1000      C1003   1.452       .  S
C1001      N1008   1.157       .  T
C1002      N1007   1.157       .  T
C1003      N1005   1.157       .  T
C1004      N1006   1.156       .  T
C1009      C1010   1.419   1_556  A
C1010      C1011   1.407       .  A
C1010      C1015   1.454       .  S
C1011      C1018   1.452       .  S
C1012      C1013   1.418       .  A
C1013      C1014   1.406   1_554  A
C1013      C1016   1.453       .  S
C1014      C1017   1.452       .  S
C1015      N1022   1.158       .  T
C1016      N1021   1.158       .  T
C1017      N1019   1.157       .  T
C1018      N1020   1.157       .  T
C1023      C1024   1.416       .  A
C1023      C1028   1.407       .  A
C1024      C1025   1.407   1_554  A
C1024      C1029   1.453       .  S
C1025      C1390   1.407       .  A
C1025      C1032   1.452       .  S
C1026      C1389   1.407   1_545  A
C1026      C1027   1.415   1_556  A
C1027      C1392   1.406       .  A
C1027      C1030   1.453       .  S
C1028      C1391   1.406       .  A
C1028      C1395   1.451       .  S
C1029      N1036   1.157       .  T
C1030      N1035   1.157       .  T
C1031      C1392   1.451       .  S
C1031      N1033   1.157       .  T
C1032      N1034   1.157       .  T
C1037      C1038   1.407       .  A
C1037      C1042   1.415       .  A
C1038      C1039   1.406       .  A
C1038      C1043   1.452       .  S
C1039      C1040   1.416   1_554  A
C1039      C1046   1.453       .  S
C1040      C1041   1.408       .  A
C1041      C1042   1.405   1_556  A
C1041      C1044   1.452       .  S
C1042      C1045   1.453       .  S
C1043      N1050   1.157       .  T
C1044      N1049   1.157       .  T
C1045      N1047   1.157       .  T
C1046      N1048   1.157       .  T
C1051      C1052   1.413       .  A
C1051      C1056   1.410       .  A
C1052      C1053   1.414       .  A
C1052      C1057   1.454       .  S
C1053      C1054   1.421       .  A
C1053      C1424   1.448   1_545  S
C1054      C1055   1.424       .  A
C1055      C1056   1.413       .  A
C1056      C1059   1.452       .  S
C1057      N1428   1.158       .  T
C1058      N1063   1.157       .  T
C1060      C1417   1.448       .  S
C1060      N1062   1.157       .  T
N1064      C1421   1.158       .  T
C1065      C1066   1.413       .  A
C1065      C1070   1.414       .  A
C1066      C1067   1.413       .  A
C1066      C1071   1.453       .  S
C1067      C1068   1.421       .  A
C1067      C1438   1.448   1_545  S
C1068      C1069   1.420       .  A
C1069      C1070   1.413       .  A
C1069      C1072   1.448       .  S
C1070      C1073   1.454       .  S
C1071      N1078   1.157       .  T
C1072      N1077   1.156       .  T
C1073      N1075   1.158       .  T
C1074      C1431   1.448       .  S
C1074      N1076   1.157       .  T
C1079      C1080   1.421       .  A
C1079      C1084   1.420       .  A
C1080      C1081   1.414       .  A
C1080      C1085   1.448       .  S
C1081      C1082   1.413       .  A
C1081      C1088   1.452       .  S
C1082      C1083   1.414       .  A
C1083      C1084   1.415       .  A
C1083      C1086   1.453       .  S
C1085      N1092   1.157       .  T
C1087      N1089   1.157       .  T
C1088      N1090   1.157       .  T
Zn1093     O1097   1.964       .  S
Zn1093     O1098   2.022       .  S
Zn1093     O1102   2.016       .  S
Zn1093     O1109   2.052       .  S
Zn1094     O1097   1.963       .  S
Zn1094     O1099   2.032       .  S
Zn1094     O1101   2.030       .  S
Zn1094     O1105   2.052       .  S
Zn1095     O1097   1.963       .  S
Zn1095     O1100   2.024       .  S
Zn1095     O1103   2.027       .  S
Zn1095     O1106   2.050       .  S
Zn1096     O1097   1.907       .  S
Zn1096     O1104   1.911       .  S
Zn1096     O1107   1.908       .  S
Zn1096     O1108   1.909       .  S
O1098      C1110   1.277       .  A
O1099      C1111   1.277       .  A
O1100      C1112   1.277       .  A
O1101      C1110   1.277       .  A
O1102      C1112   1.276       .  A
O1103      C1111   1.276       .  A
O1104      C1113   1.258       .  A
O1105      C1114   1.275       .  A
O1106      C1113   1.275       .  A
O1107      C1114   1.258       .  A
O1108      C1115   1.257       .  A
O1109      C1115   1.274       .  A
C1110      C1415   1.494       .  S
C1111      C1446   1.497       .  S
C1112      C1429   1.494       .  S
C1113      C1404   1.469       .  S
C1114      C1373   1.473       .  S
C1115      C1390   1.469       .  S
Zn1116     O1120   1.971       .  S
Zn1116     O1121   2.072       .  S
Zn1116     O1125   2.073       .  S
Zn1116     O1132   2.068       .  S
Zn1117     O1120   1.955       .  S
Zn1117     O1122   1.993       .  S
Zn1117     O1124   1.999       .  S
Zn1117     O1128   1.991       .  S
Zn1118     O1120   1.958       .  S
Zn1118     O1123   2.003       .  S
Zn1118     O1126   1.997       .  S
Zn1118     O1129   2.005       .  S
Zn1119     O1120   1.954       .  S
Zn1119     O1127   1.998       .  S
Zn1119     O1130   1.998       .  S
Zn1119     O1131   1.995       .  S
O1121      C1133   1.281       .  A
O1122      C1134   1.270       .  A
O1123      C1135   1.273       .  A
O1124      C1133   1.272       .  A
O1125      C1135   1.282       .  A
O1126      C1134   1.270       .  A
O1127      C1136   1.270       .  A
O1128      C1137   1.269       .  A
O1129      C1136   1.270       .  A
O1130      C1137   1.269       .  A
O1131      C1138   1.273       .  A
O1132      C1138   1.281       .  A
C1133      C1345   1.496       .  S
C1134      C1317   1.478       .  S
C1135      C1359   1.497       .  S
C1136      C1306   1.480       .  S
C1137      C1289   1.477       .  S
C1138      C1331   1.495       .  S
C1139      H1140   1.110       .  S
C1139      C1143   1.555       .  S
C1141      H1142   1.109       .  S
C1143      C1146   1.382       .  D
C1143      C1348   1.522       .  S
C1144      C1147   1.384       .  D
C1144      C1334   1.521       .  S
C1145      C1148   1.383       .  D
C1145      C1362   1.522       .  S
C1146      C1432   1.514       .  S
C1147      C1418   1.519       .  S
C1148      C1443   1.517       .  S
Zn1149     O1153   1.953       .  S
Zn1149     O1154   1.995       .  S
Zn1149     O1158   2.008       .  S
Zn1149     O1165   1.990       .  S
Zn1150     O1153   1.968       .  S
Zn1150     O1155   2.063       .  S
Zn1150     O1157   2.066       .  S
Zn1150     O1161   2.067       .  S
Zn1151     O1153   1.952       .  S
Zn1151     O1156   1.989       .  S
Zn1151     O1159   1.988       .  S
Zn1151     O1162   1.991       .  S
Zn1152     O1153   1.956       .  S
Zn1152     O1160   1.996       .  S
Zn1152     O1163   1.997       .  S
Zn1152     O1164   1.999       .  S
O1154      C1166   1.272       .  A
O1155      C1167   1.280       .  A
O1156      C1168   1.269       .  A
O1157      C1166   1.280       .  A
O1158      C1168   1.271       .  A
O1159      C1167   1.271       .  A
O1160      C1169   1.270       .  A
O1161      C1170   1.281       .  A
O1162      C1169   1.269       .  A
O1163      C1170   1.272       .  A
O1164      C1171   1.270       .  A
O1165      C1171   1.269       .  A
C1166      C1264   1.492       .  S
C1167      C1278   1.494       .  S
C1168      C1303   1.479       .  S
C1169      C1292   1.477       .  S
C1170      C1247   1.493       .  S
C1171      C1320   1.478       .  S
Zn1172     O1176   1.962       .  S
Zn1172     O1177   2.021       .  S
Zn1172     O1181   2.044       .  S
Zn1172     O1188   2.016       .  S
Zn1173     O1176   1.964       .  S
Zn1173     O1178   2.055       .  S
Zn1173     O1180   2.032       .  S
Zn1173     O1184   2.035       .  S
Zn1174     O1176   1.908       .  S
Zn1174     O1179   1.913       .  S
Zn1174     O1182   1.911       .  S
Zn1174     O1185   1.916       .  S
Zn1175     O1176   1.965       .  S
Zn1175     O1183   2.049       .  S
Zn1175     O1186   2.024       .  S
Zn1175     O1187   2.028       .  S
O1177      C1189   1.276       .  A
O1178      C1190   1.275       .  A
O1179      C1191   1.258       .  A
O1180      C1189   1.277       .  A
O1181      C1191   1.273       .  A
O1182      C1190   1.258       .  A
O1183      C1192   1.275       .  A
O1184      C1193   1.278       .  A
O1185      C1192   1.259       .  A
O1186      C1193   1.276       .  A
O1187      C1194   1.277       .  A
O1188      C1194   1.275       .  A
C1189      C1222   1.497       .  S
C1190      C1387   1.469       .  S
C1191      C1401   1.468       .  S
C1192      C1376   1.474       .  S
C1193      C1233   1.494       .  S
C1194      C1208   1.496       .  S
C1195      H1196   1.109       .  S
C1195      C1201   1.549       .  S
C1197      H1198   1.109       .  S
C1197      C1204   1.552       .  S
C1199      C1202   1.382       .  D
C1199      C1219   1.517       .  S
C1200      C1203   1.385       .  D
C1200      C1236   1.521       .  S
C1201      C1204   1.381       .  D
C1201      C1205   1.513       .  S
C1202      C1250   1.519       .  S
C1203      C1275   1.520       .  S
C1204      C1261   1.520       .  S
C1205      C1206   1.419       .  A
C1205      C1210   1.420       .  A
C1206      C1207   1.414       .  A
C1207      C1208   1.415       .  A
C1207      C1214   1.453       .  S
C1208      C1209   1.413       .  A
C1209      C1210   1.412       .  A
C1209      C1212   1.453       .  S
C1210      C1213   1.448       .  S
C1211      N1218   1.156       .  T
C1212      N1217   1.157       .  T
C1213      N1215   1.156       .  T
C1214      N1216   1.158       .  T
C1219      C1220   1.422       .  A
C1219      C1224   1.420       .  A
C1220      C1221   1.414       .  A
C1220      C1225   1.448   1_565  S
C1221      C1222   1.412       .  A
C1221      C1228   1.452       .  S
C1222      C1223   1.415       .  A
C1223      C1224   1.414       .  A
C1223      C1226   1.454       .  S
C1224      C1227   1.448       .  S
C1225      N1232   1.157       .  T
C1226      N1231   1.158       .  T
C1227      N1229   1.156       .  T
C1228      N1230   1.157       .  T
C1233      C1234   1.411       .  A
C1233      C1238   1.411       .  A
C1234      C1235   1.415       .  A
C1234      C1239   1.452       .  S
C1235      C1236   1.425       .  A
C1236      C1237   1.422       .  A
C1237      C1238   1.414       .  A
C1237      C1240   1.448   1_565  S
C1238      C1241   1.453       .  S
C1239      N1246   1.157       .  T
C1241      N1243   1.157       .  T
C1242      N1244   1.157       .  T
C1247      C1248   1.414       .  A
C1247      C1252   1.409       .  A
C1248      C1249   1.416       .  A
C1248      C1253   1.453       .  S
C1249      C1250   1.420       .  A
C1250      C1251   1.423       .  A
C1251      C1252   1.414       .  A
C1251      C1254   1.448       .  S
C1252      C1255   1.452       .  S
C1254      N1259   1.156       .  T
C1255      N1257   1.157       .  T
C1256      N1258   1.157       .  T
C1261      C1262   1.420       .  A
C1261      C1266   1.425       .  A
C1262      C1263   1.415       .  A
C1262      C1267   1.448       .  S
C1263      C1264   1.412       .  A
C1263      C1270   1.453       .  S
C1264      C1265   1.407       .  A
C1265      C1266   1.416       .  A
C1265      C1268   1.452       .  S
C1266      C1269   1.447       .  S
C1267      N1274   1.156       .  T
C1268      N1273   1.157       .  T
C1270      N1272   1.157       .  T
C1275      C1276   1.424       .  A
C1275      C1280   1.421       .  A
C1276      C1277   1.414       .  A
C1277      C1278   1.409       .  A
C1277      C1284   1.452       .  S
C1278      C1279   1.414       .  A
C1279      C1280   1.415       .  A
C1279      C1282   1.454       .  S
C1281      N1288   1.157       .  T
C1283      N1285   1.157       .  T
C1289      C1290   1.416       .  A
C1289      C1294   1.410       .  A
C1290      C1295   1.453       .  S
C1291      C1292   1.410   1_545  A
C1291      C1298   1.452       .  S
C1292      C1293   1.416       .  A
C1293      C1296   1.453       .  S
C1294      C1297   1.452       .  S
C1295      N1302   1.158       .  T
C1296      N1301   1.158       .  T
C1297      N1299   1.157       .  T
C1298      N1300   1.157       .  T
C1303      C1304   1.409       .  A
C1303      C1308   1.417       .  A
C1304      C1309   1.452       .  S
C1305      C1306   1.417       .  A
C1305      C1312   1.453       .  S
C1306      C1307   1.410   1_655  A
C1307      C1310   1.452       .  S
C1308      C1311   1.453       .  S
C1309      N1316   1.157       .  T
C1310      N1315   1.157       .  T
C1311      N1313   1.158       .  T
C1312      N1314   1.158       .  T
C1317      C1318   1.417       .  A
C1317      C1322   1.410       .  A
C1318      C1319   1.409       .  A
C1318      C1323   1.453       .  S
C1319      C1320   1.410       .  A
C1319      C1326   1.452       .  S
C1320      C1321   1.416       .  A
C1321      C1322   1.407       .  A
C1321      C1324   1.453       .  S
C1322      C1325   1.452       .  S
C1323      N1330   1.158       .  T
C1324      N1329   1.158       .  T
C1325      N1327   1.157       .  T
C1326      N1328   1.157       .  T
C1331      C1332   1.409       .  A
C1331      C1336   1.413       .  A
C1332      C1333   1.416       .  A
C1332      C1337   1.452       .  S
C1333      C1334   1.425       .  A
C1333      C1340   1.448       .  S
C1334      C1335   1.421       .  A
C1335      C1336   1.415       .  A
C1335      C1338   1.448   1_655  S
C1336      C1339   1.454       .  S
C1337      N1344   1.157       .  T
C1338      N1343   1.156       .  T
C1339      N1341   1.157   1_655  T
C1340      N1342   1.157       .  T
C1345      C1346   1.408       .  A
C1345      C1350   1.414       .  A
C1346      C1347   1.416       .  A
C1346      C1351   1.452       .  S
C1347      C1348   1.424       .  A
C1347      C1354   1.447       .  S
C1348      C1349   1.420       .  A
C1349      C1350   1.417       .  A
C1349      C1352   1.448       .  S
C1350      C1353   1.453       .  S
C1351      N1358   1.157       .  T
C1352      N1357   1.157       .  T
C1353      N1355   1.158       .  T
C1354      N1356   1.156       .  T
C1359      C1360   1.413       .  A
C1359      C1364   1.409       .  A
C1360      C1361   1.416       .  A
C1360      C1365   1.453       .  S
C1361      C1362   1.420       .  A
C1361      C1368   1.448       .  S
C1362      C1363   1.425       .  A
C1363      C1364   1.417       .  A
C1364      C1367   1.452       .  S
C1365      N1372   1.157       .  T
C1366      N1371   1.157       .  T
C1367      N1369   1.157       .  T
C1368      N1370   1.156       .  T
C1373      C1374   1.419   1_556  A
C1374      C1375   1.407       .  A
C1374      C1379   1.454       .  S
C1375      C1382   1.452       .  S
C1376      C1377   1.418       .  A
C1377      C1378   1.406   1_554  A
C1377      C1380   1.453       .  S
C1378      C1381   1.452       .  S
C1379      N1386   1.158       .  T
C1380      N1385   1.158       .  T
C1381      N1383   1.157       .  T
C1382      N1384   1.157       .  T
C1387      C1388   1.416       .  A
C1387      C1392   1.407   1_565  A
C1388      C1389   1.407   1_554  A
C1388      C1393   1.453       .  S
C1389      C1396   1.452       .  S
C1390      C1391   1.415   1_556  A
C1391      C1394   1.453       .  S
C1393      N1400   1.157       .  T
C1394      N1399   1.157       .  T
C1395      N1397   1.157       .  T
C1396      N1398   1.157       .  T
C1401      C1402   1.407       .  A
C1401      C1406   1.415       .  A
C1402      C1403   1.406       .  A
C1402      C1407   1.452       .  S
C1403      C1404   1.416   1_554  A
C1403      C1410   1.453       .  S
C1404      C1405   1.408       .  A
C1405      C1406   1.405   1_556  A
C1405      C1408   1.452       .  S
C1406      C1409   1.453       .  S
C1407      N1414   1.157       .  T
C1408      N1413   1.157       .  T
C1409      N1411   1.157       .  T
C1410      N1412   1.157       .  T
C1415      C1416   1.413       .  A
C1415      C1420   1.410       .  A
C1416      C1417   1.414       .  A
C1416      C1421   1.454       .  S
C1417      C1418   1.421       .  A
C1418      C1419   1.424       .  A
C1419      C1420   1.413       .  A
C1420      C1423   1.452       .  S
C1422      N1427   1.157       .  T
C1424      N1426   1.157       .  T
C1429      C1430   1.413       .  A
C1429      C1434   1.414       .  A
C1430      C1431   1.413       .  A
C1430      C1435   1.453       .  S
C1431      C1432   1.421       .  A
C1432      C1433   1.420       .  A
C1433      C1434   1.413       .  A
C1433      C1436   1.448       .  S
C1434      C1437   1.454       .  S
C1435      N1442   1.157       .  T
C1436      N1441   1.156       .  T
C1437      N1439   1.158       .  T
C1438      N1440   1.157       .  T
C1443      C1444   1.421       .  A
C1443      C1448   1.420       .  A
C1444      C1445   1.414       .  A
C1444      C1449   1.448       .  S
C1445      C1446   1.413       .  A
C1445      C1452   1.452       .  S
C1446      C1447   1.414       .  A
C1447      C1448   1.415       .  A
C1447      C1450   1.453       .  S
C1449      N1456   1.157       .  T
C1451      N1453   1.157       .  T
C1452      N1454   1.157       .  T
