geometry optimzed in LAMMPS
_audit_creation_date              2020-11-30 
_audit_creation_method            'lammps2cif' 
_symmetry_space_group_name_H-M    'P1' 
_symmetry_Int_Tables_number       1 
_symmetry_cell_setting            triclinic 
loop_ 
_symmetry_equiv_pos_as_xyz 
  x,y,z 
_cell_length_a                    51.21912833 
_cell_length_b                    51.57230706302406 
_cell_length_c                    38.00633037438079 
_cell_angle_alpha                 90.00870003502108 
_cell_angle_beta                  90.31013237350297 
_cell_angle_gamma                 89.96061717098465 
loop_ 
_atom_site_label 
_atom_site_type_symbol 
_atom_site_fract_x 
_atom_site_fract_y 
_atom_site_fract_z 
_atom_site_charge 
Fe1        Fe  0.31368104  0.18112064  0.40941020     1.65800
Fe2        Fe  0.34314900  0.15251288  0.33971745     1.73200
Fe3        Fe  0.29477947  0.19671699  0.32673464     1.54400
O4          O  0.26132235  0.18215202  0.34911947    -0.80900
O5          O  0.35379267  0.17862503  0.30056478    -0.79200
O6          O  0.27327725  0.18316914  0.40542745    -0.83400
O7          O  0.31665933  0.22080555  0.40597257    -0.78300
O8          O  0.29312444  0.16838857  0.28834278    -0.80100
O9          O  0.37297629  0.16732218  0.37064437    -0.82800
C10         C  0.30293144  0.23619125  0.38775855     0.98000
C11         C  0.25567097  0.18221171  0.38157962     1.05400
O12         O  0.31725231  0.17661843  0.35865832    -1.11800
O13         O  0.33445426  0.12355757  0.37602277    -0.74200
O14         O  0.31010041  0.14185421  0.41781747    -0.77700
O15         O  0.29231165  0.22886507  0.35922104    -0.78400
C16         C  0.32004399  0.12214045  0.40311983     0.96900
O17         O  0.35360878  0.18039612  0.41956333    -0.76300
O18         O  0.31672553  0.13500894  0.30632761    -0.81500
C19         C  0.34685569  0.20120768  0.29058407     0.99500
C20         C  0.30127484  0.14535134  0.28441088     1.05400
O21         O  0.32673116  0.21261022  0.30247506    -0.77200
C22         C  0.37409034  0.17628534  0.40174213     1.03700
C23         C  0.26453715  0.05161289  0.99150590     0.03900
C24         C  0.26678375  0.05768572  0.02751078    -0.12300
C25         C  0.26121968  0.08269766  0.03974433     0.01400
C26         C  0.25333583  0.10182062  0.01589695    -0.10800
C27         C  0.25154926  0.09628154  0.97993344     0.03900
C28         C  0.25752492  0.07134728  0.96768091    -0.10200
H29         H  0.27319386  0.04301465  0.04604405     0.09500
H30         H  0.24885516  0.12116608  0.02530609     0.07000
H31         H  0.25689615  0.06750526  0.93972213     0.06900
C32         C  0.45054799  0.23752116  0.00765671     0.03900
C33         C  0.43231015  0.25033055  0.98616926    -0.12300
C34         C  0.40908788  0.25974411  0.00057726     0.01400
C35         C  0.40424999  0.25661007  0.03648056    -0.10800
C36         C  0.42235080  0.24384122  0.05801092     0.03900
C37         C  0.44570257  0.23458435  0.04372345    -0.10200
H38         H  0.43594394  0.25250343  0.95826020     0.09500
H39         H  0.38593609  0.26327467  0.04743600     0.07000
H40         H  0.45966571  0.22450373  0.06033811     0.06900
Fe41       Fe  0.31001585  0.81553533  0.90948193     1.65800
Fe42       Fe  0.33676274  0.84395458  0.83761321     1.73200
Fe43       Fe  0.29380237  0.79434993  0.82803532     1.54400
O44         O  0.30979890  0.76243765  0.85272661    -0.80900
O45         O  0.30969727  0.85328947  0.79898203    -0.79200
O46         O  0.30816590  0.77549497  0.90834305    -0.83400
O47         O  0.26989953  0.81838245  0.90667258    -0.78300
O48         O  0.32221450  0.79174441  0.78973125    -0.80100
O49         O  0.32162799  0.87352705  0.86747892    -0.82800
C50         C  0.25416349  0.80496802  0.88841927     0.98000
C51         C  0.31064317  0.75771997  0.88552934     1.05400
O52         O  0.31358960  0.81808660  0.85833674    -1.11800
O53         O  0.36650927  0.83688580  0.87358936    -0.74200
O54         O  0.34976087  0.81247920  0.91644171    -0.77700
O55         O  0.26153217  0.79317178  0.86084087    -0.78400
C56         C  0.36897143  0.82290984  0.90094682     0.96900
O57         O  0.31118635  0.85505138  0.91812658    -0.76300
O58         O  0.35459895  0.81768903  0.80489022    -0.81500
C59         C  0.28737012  0.84515248  0.78911909     0.99500
C60         C  0.34491792  0.80060444  0.78475656     1.05400
O61         O  0.27690074  0.82465499  0.80110802    -0.77200
C62         C  0.31437171  0.87501524  0.89916504     1.03700
C63         C  0.45365422  0.76964855  0.49914389     0.03900
C64         C  0.43497046  0.75799355  0.47697228    -0.12300
C65         C  0.41066480  0.75045531  0.49047019     0.01400
C66         C  0.40500305  0.75516270  0.52593464    -0.10800
C67         C  0.42319036  0.76751191  0.54780913     0.03900
C68         C  0.44756870  0.77458526  0.53446066    -0.10200
H69         H  0.43926004  0.75505258  0.44936188     0.09500
H70         H  0.38609335  0.74976701  0.53634630     0.07000
H71         H  0.46160700  0.78428885  0.55135422     0.06900
C72         C  0.27062853  0.94821594  0.50307822     0.03900
C73         C  0.27115419  0.94436439  0.53967911    -0.12300
C74         C  0.26193385  0.92112307  0.55409215     0.01400
C75         C  0.25164297  0.90200848  0.53191439    -0.10800
C76         C  0.25119762  0.90556427  0.49544672     0.03900
C77         C  0.26023965  0.92888501  0.48104786    -0.10200
H78         H  0.27860004  0.95946811  0.55684045     0.09500
H79         H  0.24445654  0.88403268  0.54304039     0.07000
H80         H  0.25912901  0.93196386  0.45290013     0.06900
Fe81       Fe  0.68599496  0.82231127  0.40960495     1.65800
Fe82       Fe  0.65757768  0.85240017  0.33951892     1.73200
Fe83       Fe  0.70458429  0.80703224  0.32693844     1.54400
O84         O  0.73832160  0.82037202  0.35070057    -0.80900
O85         O  0.64690691  0.82781174  0.29892626    -0.79200
O86         O  0.72642930  0.81974416  0.40693746    -0.83400
O87         O  0.68255650  0.78258918  0.40574482    -0.78300
O88         O  0.70749635  0.83590613  0.28983734    -0.80100
O89         O  0.62747492  0.83702649  0.36871040    -0.82800
C90         C  0.69579935  0.76715980  0.38711393     0.98000
C91         C  0.74393509  0.82088738  0.38336098     1.05400
O92         O  0.68271602  0.82740462  0.35876750    -1.11800
O93         O  0.66563739  0.88040743  0.37728529    -0.74200
O94         O  0.68979178  0.86157684  0.41888909    -0.77700
O95         O  0.70595285  0.77442706  0.35843571    -0.78400
C96         C  0.67938256  0.88152536  0.40520399     0.96900
O97         O  0.64610502  0.82342721  0.41840427    -0.76300
O98         O  0.68478184  0.86992062  0.30745250    -0.81500
C99         C  0.65300996  0.80522860  0.28823465     0.99500
C100        C  0.70032567  0.85926120  0.28604132     1.05400
O101        O  0.67209746  0.79257573  0.30116161    -0.77200
C102        C  0.62606593  0.82730729  0.39928266     1.03700
C103        C  0.73568144  0.95735842  0.99632421     0.03900
C104        C  0.73482212  0.95377039  0.03285496    -0.12300
C105        C  0.74257144  0.93014198  0.04768103     0.01400
C106        C  0.75170518  0.91023077  0.02593306    -0.10800
C107        C  0.75322495  0.91370849  0.98940458     0.03900
C108        C  0.74487891  0.93730284  0.97461842    -0.10200
H109        H  0.72713043  0.96897791  0.04958087     0.09500
H110        H  0.75697887  0.89167939  0.03740565     0.07000
H111        H  0.74468406  0.93978760  0.94626758     0.06900
C112        C  0.54307153  0.77456171  0.00505356     0.03900
C113        C  0.56233823  0.76424493  0.98280312    -0.12300
C114        C  0.58652280  0.75622857  0.99674326     0.01400
C115        C  0.59134492  0.75913518  0.03286149    -0.10800
C116        C  0.57228460  0.76950227  0.05503194     0.03900
C117        C  0.54811213  0.77706511  0.04115838    -0.10200
H118        H  0.55872005  0.76314566  0.95474539     0.09500
H119        H  0.61018658  0.75366823  0.04371421     0.07000
H120        H  0.53349015  0.78544768  0.05825199     0.06900
Fe121      Fe  0.67973471  0.18960170  0.91322522     1.65800
Fe122      Fe  0.65302937  0.16202300  0.83947708     1.73200
Fe123      Fe  0.70013820  0.20831790  0.83220735     1.54400
O124        O  0.68793444  0.24199432  0.85655762    -0.80900
O125        O  0.67986654  0.15031512  0.80226347    -0.79200
O126        O  0.68187885  0.22981069  0.91193980    -0.83400
O127        O  0.71971380  0.18652243  0.91428196    -0.78300
O128        O  0.67211625  0.21429430  0.79418090    -0.80100
O129        O  0.66547363  0.13175671  0.87118601    -0.82800
C130        C  0.73714058  0.19679467  0.89546636     0.98000
C131        C  0.68395043  0.24740738  0.88873914     1.05400
O132        O  0.67752646  0.18665996  0.86165258    -1.11800
O133        O  0.62284402  0.17113141  0.87318953    -0.74200
O134        O  0.63995235  0.19292052  0.91844962    -0.77700
O135        O  0.73208798  0.20623146  0.86540555    -0.78400
C136        C  0.62060163  0.18403102  0.90142093     0.96900
O137        O  0.67864691  0.15000729  0.92110184    -0.76300
O138        O  0.63801423  0.18909576  0.80457387    -0.81500
C139        C  0.70258627  0.15687660  0.79225160     0.99500
C140        C  0.64937788  0.20649673  0.78667634     1.05400
O141        O  0.71419574  0.17651828  0.80500422    -0.77200
C142        C  0.67413575  0.13009718  0.90251121     1.03700
C143        C  0.55033660  0.23323351  0.49679033     0.03900
C144        C  0.55320548  0.23255310  0.53352658    -0.12300
C145        C  0.57675249  0.24011358  0.54938544     0.01400
C146        C  0.59705746  0.24959090  0.52848753    -0.10800
C147        C  0.59435326  0.25111439  0.49182406     0.03900
C148        C  0.57102100  0.24243403  0.47592236    -0.10200
H149        H  0.53720405  0.22586030  0.54968956     0.09500
H150        H  0.61516759  0.25573295  0.54086788     0.07000
H151        H  0.56894522  0.24277887  0.44758539     0.06900
C152        C  0.73851110  0.05201827  0.50756312     0.03900
C153        C  0.74993316  0.07078207  0.48561980    -0.12300
C154        C  0.75980774  0.09387923  0.49997133     0.01400
C155        C  0.75844972  0.09806201  0.53627402    -0.10800
C156        C  0.74647294  0.07989892  0.55827907     0.03900
C157        C  0.73637777  0.05691841  0.54383436    -0.10200
H158        H  0.75073789  0.06761856  0.45746503     0.09500
H159        H  0.76558661  0.11615604  0.54723803     0.07000
H160        H  0.72650802  0.04309889  0.56061073     0.06900
Fe161      Fe  0.82159074  0.31690345  0.40746934     1.65800
Fe162      Fe  0.84742800  0.34424888  0.33399855     1.73200
Fe163      Fe  0.80195752  0.29656921  0.32647723     1.54400
O164        O  0.80524269  0.26475611  0.35998256    -0.80900
O165        O  0.81861970  0.35963427  0.30230567    -0.79200
O166        O  0.82704969  0.27748549  0.40749942    -0.83400
O167        O  0.78131139  0.31208752  0.40728862    -0.78300
O168        O  0.83409564  0.28335271  0.29854761    -0.80100
O169        O  0.83942690  0.37342173  0.36980572    -0.82800
C170        C  0.76312562  0.30989370  0.38460969     0.98000
C171        C  0.81583465  0.26000832  0.38965606     1.05400
O172        O  0.82360077  0.31927820  0.35600403    -1.11800
O173        O  0.87863996  0.33100626  0.36310569    -0.74200
O174        O  0.86157837  0.32046221  0.41481804    -0.77700
O175        O  0.76790873  0.30753960  0.35189792    -0.78400
C176        C  0.88103809  0.32332901  0.39460391     0.96900
O177        O  0.81572970  0.35612577  0.41266715    -0.76300
O178        O  0.85850827  0.31876365  0.29467099    -0.81500
C179        C  0.80140600  0.34854295  0.28347594     0.99500
C180        C  0.85307781  0.29572468  0.28520218     1.05400
O181        O  0.79505949  0.32505748  0.28869761    -0.77200
C182        C  0.82549817  0.37554110  0.39719810     1.03700
C183        C  0.95503335  0.26408179  0.99931887     0.03900
C184        C  0.93405729  0.25496723  0.97874407    -0.12300
C185        C  0.91070019  0.24734746  0.99490258     0.01400
C186        C  0.90810792  0.24962300  0.03141989    -0.10800
C187        C  0.92870229  0.25913469  0.05199530     0.03900
C188        C  0.95224929  0.26606992  0.03597127    -0.10200
H189        H  0.93582234  0.25396594  0.95039347     0.09500
H190        H  0.88983207  0.24440203  0.04379247     0.07000
H191        H  0.96816236  0.27359784  0.05188139     0.06900
C192        C  0.75383899  0.45956899  0.00174006     0.03900
C193        C  0.75898202  0.45357385  0.03728493    -0.12300
C194        C  0.75179773  0.42931169  0.05114268     0.01400
C195        C  0.74003722  0.41097611  0.02893003    -0.10800
C196        C  0.73601277  0.41621689  0.99316042     0.03900
C197        C  0.74252578  0.44069619  0.97970711    -0.10200
H198        H  0.76900941  0.46754358  0.05378927     0.09500
H199        H  0.73493848  0.39205235  0.03925276     0.07000
H200        H  0.73940973  0.44483245  0.95206069     0.06900
Fe201      Fe  0.18598858  0.31942026  0.90636862     1.65800
Fe202      Fe  0.15745719  0.34959624  0.83695767     1.73200
Fe203      Fe  0.20434383  0.30441677  0.82324666     1.54400
O204        O  0.23683807  0.30489866  0.85607824    -0.80900
O205        O  0.14046112  0.32290012  0.80409952    -0.79200
O206        O  0.22588495  0.32465771  0.90557598    -0.83400
O207        O  0.19068280  0.27966356  0.90123198    -0.78300
O208        O  0.21806242  0.33738406  0.79918312    -0.80100
O209        O  0.12888402  0.34090868  0.87387506    -0.82800
C210        C  0.19196644  0.26297074  0.87657753     0.98000
C211        C  0.24294842  0.31465080  0.88562745     1.05400
O212        O  0.18254697  0.32441915  0.85554570    -1.11800
O213        O  0.17291178  0.37856569  0.86757542    -0.74200
O214        O  0.18266900  0.35874285  0.91795801    -0.77700
O215        O  0.19270620  0.26968574  0.84455297    -0.78400
C216        C  0.18064964  0.37910810  0.89925922     0.96900
O217        O  0.14643187  0.31326418  0.91197296    -0.76300
O218        O  0.18196104  0.36120496  0.79668234    -0.81500
C219        C  0.15132300  0.30785947  0.78231193     0.99500
C220        C  0.20482146  0.35576556  0.78603102     1.05400
O221        O  0.17506385  0.30093655  0.78546429    -0.77200
C222        C  0.12668900  0.32457116  0.89867597     1.03700
C223        C  0.22785736  0.44986569  0.49406264     0.03900
C224        C  0.23632868  0.42883837  0.47353970    -0.12300
C225        C  0.24393415  0.40558145  0.48982956     0.01400
C226        C  0.24229436  0.40319026  0.52647130    -0.10800
C227        C  0.23329224  0.42384369  0.54688630     0.03900
C228        C  0.22660595  0.44726140  0.53078849    -0.10200
H229        H  0.23643364  0.43033212  0.44513996     0.09500
H230        H  0.24752243  0.38503263  0.53905536     0.07000
H231        H  0.21964848  0.46322996  0.54678431     0.06900
C232        C  0.05010234  0.25992699  0.49874610     0.03900
C233        C  0.06536117  0.24416793  0.47696979    -0.12300
C234        C  0.08841261  0.23300452  0.48986153     0.01400
C235        C  0.09608921  0.23763362  0.52475999    -0.10800
C236        C  0.08152777  0.25420123  0.54633320     0.03900
C237        C  0.05808652  0.26473163  0.53345191    -0.10200
H238        H  0.05968403  0.24119382  0.44973094     0.09500
H239        H  0.11387756  0.22892494  0.53472964     0.07000
H240        H  0.04634680  0.27706540  0.55015968     0.06900
Fe241      Fe  0.18455955  0.68327127  0.41160214     1.65800
Fe242      Fe  0.15378987  0.65789340  0.34019439     1.73200
Fe243      Fe  0.20182489  0.70230220  0.32983233     1.54400
O244        O  0.19021087  0.73584165  0.35424616    -0.80900
O245        O  0.17787245  0.64736485  0.29894555    -0.79200
O246        O  0.19007347  0.72326552  0.41027115    -0.83400
O247        O  0.22432172  0.67720519  0.40881338    -0.78300
O248        O  0.17265267  0.70772834  0.29253181    -0.80100
O249        O  0.16786822  0.62661348  0.36791155    -0.82800
C250        C  0.24098710  0.68941508  0.39074508     0.98000
C251        C  0.19028480  0.74095555  0.38692669     1.05400
O252        O  0.17999381  0.68112323  0.36061359    -1.11800
O253        O  0.12619635  0.66555811  0.37870994    -0.74200
O254        O  0.14532032  0.68948029  0.41981448    -0.77700
O255        O  0.23473758  0.70063316  0.36213988    -0.78400
C256        C  0.12503821  0.67914781  0.40650359     0.96900
O257        O  0.18000884  0.64366230  0.41913528    -0.76300
O258        O  0.13728457  0.68682955  0.30981778    -0.81500
C259        C  0.20106630  0.65236225  0.28927808     0.99500
C260        C  0.14860441  0.70222531  0.28888145     1.05400
O261        O  0.21478259  0.67020548  0.30309572    -0.77200
C262        C  0.17526590  0.62417459  0.39958309     1.03700
C263        C  0.03981084  0.73870344  0.00539906     0.03900
C264        C  0.05813767  0.74680525  0.98016991    -0.12300
C265        C  0.08354976  0.75378350  0.99065157     0.01400
C266        C  0.09052756  0.75241257  0.02632804    -0.10800
C267        C  0.07238195  0.74462424  0.05161107     0.03900
C268        C  0.04712193  0.73750544  0.04100801    -0.10200
H269        H  0.05279228  0.74721282  0.95256967     0.09500
H270        H  0.11034223  0.75701251  0.03436344     0.07000
H271        H  0.03328356  0.73064497  0.06038244     0.06900
C272        C  0.23139068  0.55216622  0.00048720     0.03900
C273        C  0.24351258  0.57085407  0.97909277    -0.12300
C274        C  0.25005090  0.59523003  0.99313388     0.01400
C275        C  0.24482985  0.60058739  0.02846661    -0.10800
C276        C  0.23287046  0.58201502  0.04970340     0.03900
C277        C  0.22649133  0.55770935  0.03591512    -0.10200
H278        H  0.24746716  0.56660140  0.95172978     0.09500
H279        H  0.24987484  0.61936454  0.03940358     0.07000
H280        H  0.21720543  0.54335213  0.05249394     0.06900
Fe281      Fe  0.80719627  0.69061553  0.90258163     1.65800
Fe282      Fe  0.83844936  0.65904622  0.83632127     1.73200
Fe283      Fe  0.79326977  0.70594909  0.81685097     1.54400
O284        O  0.75822698  0.70423929  0.84438209    -0.80900
O285        O  0.85738221  0.68501169  0.80413946    -0.79200
O286        O  0.76712379  0.68943143  0.89798289    -0.83400
O287        O  0.80594046  0.73029127  0.89813260    -0.78300
O288        O  0.78239991  0.67378337  0.78713804    -0.80100
O289        O  0.86577153  0.66778967  0.87522738    -0.82800
C290        C  0.80424853  0.74706250  0.87388266     0.98000
C291        C  0.75108634  0.69823641  0.87531622     1.05400
O292        O  0.81283943  0.68520584  0.85184083    -1.11800
O293        O  0.82145001  0.63028829  0.86651262    -0.74200
O294        O  0.80682275  0.65129190  0.91368843    -0.77700
O295        O  0.80190075  0.74086617  0.84161027    -0.78400
C296        C  0.81127525  0.63047794  0.89692923     0.96900
O297        O  0.84665452  0.69376456  0.91370015    -0.76300
O298        O  0.81603310  0.64683852  0.79403775    -0.81500
C299        C  0.84875914  0.70210682  0.78310194     0.99500
C300        C  0.79525116  0.65369128  0.77832038     1.05400
O301        O  0.82554584  0.71080907  0.78482958    -0.77200
C302        C  0.86689724  0.68287231  0.90155080     1.03700
C303        C  0.77332227  0.55154523  0.48639570     0.03900
C304        C  0.77519198  0.55446209  0.52307150    -0.12300
C305        C  0.76832093  0.57800551  0.53887849     0.01400
C306        C  0.75976445  0.59862717  0.51783164    -0.10800
C307        C  0.75719320  0.59575035  0.48132150     0.03900
C308        C  0.76423821  0.57218698  0.46554794    -0.10200
H309        H  0.78223583  0.53855401  0.53917747     0.09500
H310        H  0.75506882  0.61705634  0.52995351     0.07000
H311        H  0.76321410  0.57005564  0.43719789     0.06900
C312        C  0.95123922  0.73866928  0.49996978     0.03900
C313        C  0.93396518  0.75101518  0.47624989    -0.12300
C314        C  0.91057305  0.76197753  0.48834234     0.01400
C315        C  0.90454326  0.76087247  0.52414551    -0.10800
C316        C  0.92085097  0.74770337  0.54776132     0.03900
C317        C  0.94479943  0.73787863  0.53591123    -0.10200
H318        H  0.93825297  0.75143197  0.44836037     0.09500
H319        H  0.88667614  0.76971315  0.53342727     0.07000
H320        H  0.95789416  0.72857334  0.55443233     0.06900
C321        C  0.89527314  0.70465279  0.70508040    -0.11100
C322        C  0.88906131  0.72899278  0.69116956     0.11500
C323        C  0.87157045  0.74545740  0.70917352    -0.02900
C324        C  0.86066183  0.73672059  0.74090829    -0.05700
C325        C  0.86565425  0.71167349  0.75409271    -0.16400
C326        C  0.88365499  0.69537506  0.73603676     0.02500
C327        C  0.89786521  0.73462726  0.65496224     0.12400
C328        C  0.86329561  0.77144535  0.69385742     0.63100
H329        H  0.84691347  0.74894873  0.75472102     0.12500
C330        C  0.88957096  0.66775756  0.74765437     0.55200
H331        H  0.90835548  0.69237995  0.69018940     0.08300
C332        C  0.92238688  0.74584115  0.64750353    -0.05600
C333        C  0.92880759  0.75069449  0.61214177    -0.06300
C334        C  0.91229175  0.74293169  0.58441802    -0.15900
C335        C  0.88893653  0.72920726  0.59209709    -0.01500
C336        C  0.88179141  0.72610945  0.62741013    -0.09000
C337        C  0.94203625  0.75141780  0.67657347     0.65300
H338        H  0.94710171  0.76008316  0.60576651     0.10700
C339        C  0.87220534  0.71650051  0.56370204     0.63700
H340        H  0.86363900  0.71647699  0.63394357     0.08100
F341        F  0.90181833  0.66806948  0.78011388    -0.19400
F342        F  0.90594820  0.65506968  0.72443259    -0.15600
F343        F  0.86668541  0.65360866  0.74960216    -0.19100
F344        F  0.85043155  0.76763249  0.66221089    -0.22500
F345        F  0.88490181  0.78685538  0.68816769    -0.24000
F346        F  0.84665353  0.78472215  0.71609943    -0.18000
F347        F  0.85539874  0.69826907  0.57780061    -0.20400
F348        F  0.88783151  0.70382315  0.53962127    -0.21600
F349        F  0.85724630  0.73492634  0.54659162    -0.18800
F350        F  0.96473291  0.76226762  0.66356040    -0.18900
F351        F  0.94857274  0.72854049  0.69342695    -0.22700
F352        F  0.93160026  0.76837368  0.70085226    -0.24300
C353        C  0.78264333  0.59925264  0.71208209    -0.11100
C354        C  0.78050783  0.61353640  0.68083955     0.11500
C355        C  0.78058087  0.64098930  0.68217627    -0.02900
C356        C  0.78408300  0.65329360  0.71495485    -0.05700
C357        C  0.78745139  0.63906113  0.74618816    -0.16400
C358        C  0.78616246  0.61156666  0.74491930     0.02500
C359        C  0.77804749  0.59949290  0.64681128     0.12400
C360        C  0.77708769  0.65714802  0.64898662     0.63100
H361        H  0.78514737  0.67424925  0.71627829     0.12500
C362        C  0.78760629  0.59535379  0.77815518     0.55200
H363        H  0.78196225  0.57829774  0.71040442     0.08300
C364        C  0.80017264  0.59294836  0.62641553    -0.05600
C365        C  0.79632174  0.58488260  0.59137275    -0.06300
C366        C  0.77114302  0.58201196  0.57723888    -0.15900
C367        C  0.74914316  0.58504382  0.59920646    -0.01500
C368        C  0.75294918  0.59426665  0.63369669    -0.09000
C369        C  0.82755720  0.59427285  0.64180338     0.65300
H370        H  0.81290693  0.58141523  0.57443317     0.10700
C371        C  0.72192923  0.57818693  0.58623112     0.63700
H372        H  0.73631426  0.59836094  0.65029170     0.08100
F373        F  0.81236247  0.59664132  0.79267330    -0.19400
F374        F  0.78202541  0.56953055  0.77160558    -0.15600
F375        F  0.76960897  0.60453106  0.80211908    -0.19100
F376        F  0.75293970  0.65207482  0.63409682    -0.22500
F377        F  0.79629576  0.65119434  0.62487568    -0.24000
F378        F  0.77850950  0.68346007  0.65591714    -0.18000
F379        F  0.70379151  0.57933236  0.61304320    -0.20400
F380        F  0.72195773  0.55319371  0.57296595    -0.21600
F381        F  0.71412551  0.59513217  0.56006123    -0.18800
F382        F  0.84628877  0.58748651  0.61732725    -0.18900
F383        F  0.82946651  0.57724260  0.66979845    -0.22700
F384        F  0.83302076  0.61905198  0.65354785    -0.24300
C385        C  0.96808475  0.73707361  0.97861636    -0.11100
C386        C  0.96468122  0.71063520  0.97096501     0.11500
C387        C  0.98577284  0.69321355  0.97639906    -0.02900
C388        C  0.01003850  0.70318274  0.98763159    -0.05700
C389        C  0.01352415  0.72968166  0.99440845    -0.16400
C390        C  0.99204625  0.74678628  0.99135041     0.02500
C391        C  0.93956074  0.70223197  0.95450485     0.12400
C392        C  0.98264847  0.66423828  0.97056319     0.63100
H393        H  0.02662024  0.69037498  0.99105216     0.12500
C394        C  0.99451084  0.77504994  0.00187375     0.55200
H395        H  0.95184033  0.75012287  0.97414734     0.08300
C396        C  0.91611773  0.69948600  0.97372244    -0.05600
C397        C  0.89305188  0.69255175  0.95552299    -0.06300
C398        C  0.89266867  0.68824927  0.91890938    -0.15900
C399        C  0.91640576  0.69087539  0.89985710    -0.01500
C400        C  0.93928677  0.69806978  0.91810401    -0.09000
C401        C  0.91541431  0.70409914  0.01317819     0.65300
H402        H  0.87494004  0.69063805  0.96986132     0.10700
C403        C  0.91775311  0.68699635  0.86031420     0.63700
H404        H  0.95740605  0.70070707  0.90398630     0.08100
F405        F  0.00251551  0.77672537  0.03662178    -0.19400
F406        F  0.97099629  0.78810921  0.99861588    -0.15600
F407        F  0.01266913  0.78721814  0.98079416    -0.19100
F408        F  0.97804835  0.65918775  0.93538157    -0.22500
F409        F  0.96192163  0.65505901  0.99007401    -0.24000
F410        F  0.00476670  0.65065441  0.98072158    -0.18000
F411        F  0.94211889  0.69303855  0.84700728    -0.20400
F412        F  0.89970013  0.70286253  0.84382148    -0.21600
F413        F  0.91271871  0.66133275  0.85224677    -0.18800
F414        F  0.89123130  0.69825729  0.02719882    -0.18900
F415        F  0.92071770  0.72982982  0.02036394    -0.22700
F416        F  0.93382395  0.68874456  0.02984647    -0.24300
C417        C  0.09357807  0.75720375  0.14623932    -0.11100
C418        C  0.10001018  0.73198485  0.15706857     0.11500
C419        C  0.09603633  0.71084442  0.13382960    -0.02900
C420        C  0.08621321  0.71584533  0.09991989    -0.05700
C421        C  0.08083430  0.74113813  0.08856853    -0.16400
C422        C  0.08444700  0.76225863  0.11190483     0.02500
C423        C  0.11198129  0.72817244  0.19233699     0.12400
C424        C  0.10266386  0.68321047  0.14458559     0.63100
H425        H  0.08324507  0.70004060  0.08149857     0.12500
C426        C  0.07897664  0.78991682  0.10038376     0.55200
H427        H  0.09660417  0.77300422  0.16463506     0.08300
C428        C  0.13906319  0.73125646  0.19791301    -0.05600
C429        C  0.14976709  0.72368616  0.23042279    -0.06300
C430        C  0.13437124  0.71307182  0.25755739    -0.15900
C431        C  0.10675976  0.71189737  0.25256878    -0.01500
C432        C  0.09613000  0.71971076  0.21993836    -0.09000
C433        C  0.15666540  0.74201424  0.16931296     0.65300
H434        H  0.17062934  0.72515310  0.23417016     0.10700
C435        C  0.08836425  0.70179295  0.28057443     0.63700
H436        H  0.07538566  0.71807470  0.21497742     0.08100
F437        F  0.09608654  0.79691846  0.07404565    -0.19400
F438        F  0.08196232  0.80732009  0.12785625    -0.15600
F439        F  0.05365155  0.79189620  0.08786622    -0.19100
F440        F  0.08773144  0.67599337  0.17312429    -0.22500
F441        F  0.12879171  0.68143144  0.15358255    -0.24000
F442        F  0.09786710  0.66574106  0.11765945    -0.18000
F443        F  0.06243271  0.70596391  0.27173330    -0.20400
F444        F  0.09308113  0.71427326  0.31220773    -0.21600
F445        F  0.09190908  0.67537420  0.28445084    -0.18800
F446        F  0.18253638  0.74300415  0.17996387    -0.18900
F447        F  0.14892083  0.76691731  0.16077362    -0.22700
F448        F  0.15520170  0.72663459  0.13957760    -0.24300
C449        C  0.20984200  0.60222746  0.21793054    -0.11100
C450        C  0.22008848  0.61771065  0.19115355     0.11500
C451        C  0.22719133  0.64372052  0.19810764    -0.02900
C452        C  0.22279864  0.65371770  0.23191047    -0.05700
C453        C  0.21132723  0.63856577  0.25833474    -0.16400
C454        C  0.20614192  0.61200904  0.25192390     0.02500
C455        C  0.22254267  0.60631500  0.15575983     0.12400
C456        C  0.23829158  0.66111056  0.16959304     0.63100
H457        H  0.22659937  0.67399334  0.23717370     0.12500
C458        C  0.19556066  0.59399928  0.27982970     0.55200
H459        H  0.20438988  0.58241520  0.21195054     0.08300
C460        C  0.24370637  0.59006418  0.14675653    -0.05600
C461        C  0.24567954  0.58142952  0.11184449    -0.06300
C462        C  0.22703709  0.58841098  0.08641371    -0.15900
C463        C  0.20505844  0.60349686  0.09596825    -0.01500
C464        C  0.20325934  0.61224501  0.13075667    -0.09000
C465        C  0.26425542  0.58235458  0.17376392     0.65300
H466        H  0.26217724  0.56977385  0.10382147     0.10700
C467        C  0.18334229  0.61143108  0.07077275     0.63700
H468        H  0.18686021  0.62422085  0.13840454     0.08100
F469        F  0.20367192  0.56876201  0.27386153    -0.19400
F470        F  0.16861222  0.59475966  0.27873530    -0.15600
F471        F  0.20432042  0.60104857  0.31298954    -0.19100
F472        F  0.21966609  0.66528935  0.14375554    -0.22500
F473        F  0.25994512  0.64958720  0.15467010    -0.24000
F474        F  0.24583241  0.68499736  0.18279273    -0.18000
F475        F  0.15948526  0.60462460  0.08495215    -0.20400
F476        F  0.18512266  0.59983628  0.03812776    -0.21600
F477        F  0.18394989  0.63802835  0.06625265    -0.18800
F478        F  0.28395054  0.56764023  0.15895430    -0.18900
F479        F  0.25287988  0.56782117  0.20009896    -0.22700
F480        F  0.27544485  0.60425040  0.18842991    -0.24300
C481        C  0.01098734  0.69479342  0.48961097    -0.11100
C482        C  0.02644913  0.70991312  0.46738991     0.11500
C483        C  0.01629120  0.73320576  0.45319919    -0.02900
C484        C  0.99179584  0.74197572  0.46477980    -0.05700
C485        C  0.97618506  0.72702080  0.48738222    -0.16400
C486        C  0.98536270  0.70214551  0.49819536     0.02500
C487        C  0.05185305  0.69933941  0.45568169     0.12400
C488        C  0.03083400  0.74813768  0.42491545     0.63100
H489        H  0.98459589  0.76061775  0.45602754     0.12500
C490        C  0.96880017  0.68192220  0.51673273     0.55200
H491        H  0.01852223  0.67630677  0.49867060     0.08300
C492        C  0.07575638  0.70654477  0.47140693    -0.05600
C493        C  0.09908687  0.69940987  0.45460522    -0.06300
C494        C  0.09924241  0.68377395  0.42404885    -0.15900
C495        C  0.07496779  0.67335009  0.41182879    -0.01500
C496        C  0.05170500  0.68211465  0.42732916    -0.09000
C497        C  0.07651233  0.72078872  0.50638687     0.65300
H498        H  0.11740927  0.70607089  0.46552917     0.10700
C499        C  0.07296804  0.65284740  0.38324197     0.63700
H500        H  0.03297273  0.67598694  0.41701371     0.08100
F501        F  0.97676264  0.67986740  0.55144640    -0.19400
F502        F  0.97212586  0.65809257  0.50057393    -0.15600
F503        F  0.94241515  0.68742632  0.51550330    -0.19100
F504        F  0.03438703  0.73241586  0.39584859    -0.22500
F505        F  0.05494459  0.75604886  0.43729882    -0.24000
F506        F  0.01719248  0.76992815  0.41410754    -0.18000
F507        F  0.08853608  0.63190387  0.39197483    -0.20400
F508        F  0.08062376  0.66306248  0.35138402    -0.21600
F509        F  0.04771331  0.64368679  0.37916726    -0.18800
F510        F  0.10184515  0.72574457  0.51736832    -0.18900
F511        F  0.06460587  0.70569817  0.53173282    -0.22700
F512        F  0.06347319  0.74417327  0.50395300    -0.24300
C513        C  0.22413214  0.51396487  0.44472869    -0.11100
C514        C  0.19900132  0.52215960  0.45397342     0.11500
C515        C  0.18292026  0.50603522  0.47470731    -0.02900
C516        C  0.19277854  0.48191344  0.48554032    -0.05700
C517        C  0.21840795  0.47416628  0.47772486    -0.16400
C518        C  0.23461389  0.49062172  0.45745505     0.02500
C519        C  0.19105828  0.54855592  0.44327621     0.12400
C520        C  0.15611989  0.51479197  0.48685641     0.63100
H521        H  0.18081385  0.46915349  0.50130423     0.12500
C522        C  0.26296223  0.48442758  0.44963338     0.55200
H523        H  0.23595489  0.52665448  0.42863444     0.08300
C524        C  0.20298239  0.57101241  0.45752959    -0.05600
C525        C  0.19741681  0.59509924  0.44213757    -0.06300
C526        C  0.17935524  0.59773852  0.41436475    -0.15900
C527        C  0.16590128  0.57530924  0.40206370    -0.01500
C528        C  0.17290439  0.55099034  0.41584479    -0.09000
C529        C  0.22177534  0.57090243  0.48863757     0.65300
H530        H  0.20743718  0.61209611  0.45212034     0.10700
C531        C  0.14388580  0.57660696  0.37523267     0.63700
H532        H  0.16447975  0.53351001  0.40486367     0.08100
F533        F  0.27694243  0.50676738  0.44241858    -0.19400
F534        F  0.26410764  0.46845296  0.42053949    -0.15600
F535        F  0.27499514  0.47248396  0.47799445    -0.19100
F536        F  0.13977662  0.51841461  0.45824792    -0.22500
F537        F  0.15837703  0.53784411  0.50521808    -0.24000
F538        F  0.14457836  0.49673561  0.50878349    -0.18000
F539        F  0.15386944  0.58179444  0.34238307    -0.20400
F540        F  0.12635852  0.59575904  0.38450795    -0.21600
F541        F  0.13022496  0.55348140  0.37320407    -0.18800
F542        F  0.21312423  0.58836334  0.51363387    -0.18900
F543        F  0.24622075  0.57850806  0.47734131    -0.22700
F544        F  0.22403863  0.54704405  0.50490428    -0.24300
C545        C  0.10861404  0.30522878  0.69995567    -0.11100
C546        C  0.11469760  0.28044798  0.68742485     0.11500
C547        C  0.13155691  0.26414281  0.70699188    -0.02900
C548        C  0.14181272  0.27333246  0.73901615    -0.05700
C549        C  0.13634989  0.29845309  0.75133279    -0.16400
C550        C  0.11929029  0.31476407  0.73156335     0.02500
C551        C  0.10554479  0.27342322  0.65168867     0.12400
C552        C  0.13955682  0.23762591  0.69332691     0.63100
H553        H  0.15500616  0.26126186  0.75412311     0.12500
C554        C  0.11345553  0.34259089  0.74228252     0.55200
H555        H  0.09609832  0.31737906  0.68393821     0.08300
C556        C  0.08068126  0.26248915  0.64526516    -0.05600
C557        C  0.07398673  0.25570203  0.61054167    -0.06300
C558        C  0.09074420  0.26088908  0.58224533    -0.15900
C559        C  0.11478568  0.27388353  0.58854315    -0.01500
C560        C  0.12194307  0.27939578  0.62346925    -0.09000
C561        C  0.06108982  0.25889143  0.67471758     0.65300
H562        H  0.05530450  0.24664442  0.60504076     0.10700
C563        C  0.13224413  0.28324495  0.55883516     0.63700
H564        H  0.14046653  0.28871913  0.62916440     0.08100
F565        F  0.09979872  0.34288052  0.77353175    -0.19400
F566        F  0.09843593  0.35540340  0.71735274    -0.15600
F567        F  0.13652963  0.35622988  0.74628225    -0.19100
F568        F  0.15322826  0.24037342  0.66229430    -0.22500
F569        F  0.11771029  0.22258611  0.68709727    -0.24000
F570        F  0.15535498  0.22454959  0.71709139    -0.18000
F571        F  0.15144891  0.29994238  0.57097435    -0.20400
F572        F  0.11753394  0.29647773  0.53403408    -0.21600
F573        F  0.14458305  0.26253972  0.54298380    -0.18800
F574        F  0.03802100  0.24799971  0.66265448    -0.18900
F575        F  0.05523669  0.28269397  0.68945101    -0.22700
F576        F  0.07128769  0.24289157  0.70049246    -0.24300
C577        C  0.23505732  0.37361701  0.69801825    -0.11100
C578        C  0.22445358  0.39835566  0.69298075     0.11500
C579        C  0.20976843  0.41011672  0.71995840    -0.02900
C580        C  0.20591363  0.39629664  0.75133881    -0.05700
C581        C  0.21526953  0.37083240  0.75589747    -0.16400
C582        C  0.23058872  0.35934852  0.72886364     0.02500
C583        C  0.22598799  0.40927813  0.65710634     0.12400
C584        C  0.19683421  0.43636519  0.71482646     0.63100
H585        H  0.19398876  0.40473938  0.77176258     0.12500
C586        C  0.24093039  0.33172638  0.73104920     0.55200
H587        H  0.24580331  0.36502424  0.67647609     0.08300
C588        C  0.24911174  0.42059214  0.64385413    -0.05600
C589        C  0.25046568  0.42611319  0.60765791    -0.06300
C590        C  0.22961502  0.42031213  0.58495897    -0.15900
C591        C  0.20617865  0.40993505  0.59844189    -0.01500
C592        C  0.20480279  0.40449777  0.63452162    -0.09000
C593        C  0.27234414  0.42620857  0.66765905     0.65300
H594        H  0.26809863  0.43416737  0.59653810     0.10700
C595        C  0.18309168  0.40391790  0.57456479     0.63700
H596        H  0.18756338  0.39534610  0.64521486     0.08100
F597        F  0.25855064  0.32972742  0.75853062    -0.19400
F598        F  0.25373568  0.32434362  0.70064337    -0.15600
F599        F  0.22053871  0.31457692  0.73609577    -0.19100
F600        F  0.17724514  0.43438142  0.68982338    -0.22500
F601        F  0.21493114  0.45439368  0.70371728    -0.24000
F602        F  0.18586285  0.44545357  0.74568290    -0.18000
F603        F  0.16179037  0.39505874  0.59333247    -0.20400
F604        F  0.18997068  0.38499713  0.55055367    -0.21600
F605        F  0.17556750  0.42605866  0.55666072    -0.18800
F606        F  0.29231110  0.43838829  0.64966896    -0.18900
F607        F  0.28206296  0.40335968  0.68149070    -0.22700
F608        F  0.26483687  0.44222761  0.69493365    -0.24300
C609        C  0.19190308  0.49766707  0.95954817    -0.11100
C610        C  0.20905985  0.47671569  0.96376621     0.11500
C611        C  0.23392525  0.48064509  0.97941385    -0.02900
C612        C  0.24075297  0.50579267  0.99044821    -0.05700
C613        C  0.22352648  0.52669816  0.98628568    -0.16400
C614        C  0.19857988  0.52267693  0.97109988     0.02500
C615        C  0.20137245  0.45146376  0.94833328     0.12400
C616        C  0.25300877  0.45837140  0.98458625     0.63100
H617        H  0.25958134  0.50937277  0.00273134     0.12500
C618        C  0.17909407  0.54469195  0.96758131     0.55200
H619        H  0.17316924  0.49420460  0.94694514     0.08300
C620        C  0.18504713  0.43362520  0.96595436    -0.05600
C621        C  0.17910313  0.40993631  0.94929384    -0.06300
C622        C  0.18775593  0.40443279  0.91505604    -0.15900
C623        C  0.20336274  0.42288126  0.89701850    -0.01500
C624        C  0.20997620  0.44606548  0.91423703    -0.09000
C625        C  0.17317918  0.44002240  0.00144792     0.65300
H626        H  0.16694478  0.39584240  0.96242634     0.10700
C627        C  0.21334502  0.41823612  0.85995350     0.63700
H628        H  0.22181762  0.46043676  0.90111102     0.08100
F629        F  0.17322107  0.55434481  0.00052994    -0.19400
F630        F  0.15602882  0.53668684  0.95185624    -0.15600
F631        F  0.18958869  0.56425493  0.94726341    -0.19100
F632        F  0.25931251  0.44754115  0.95247784    -0.22500
F633        F  0.24193216  0.43954872  0.00561895    -0.24000
F634        F  0.27594707  0.46647213  0.00057068    -0.18000
F635        F  0.19262368  0.41851446  0.83653369    -0.20400
F636        F  0.22602646  0.39457827  0.85820621    -0.21600
F637        F  0.23078757  0.43720553  0.84951702    -0.18800
F638        F  0.15907051  0.41940129  0.01482831    -0.18900
F639        F  0.15645010  0.46091565  0.99790202    -0.22700
F640        F  0.19250992  0.44623680  0.02548681    -0.24300
C641        C  0.75384511  0.53001889  0.97129330    -0.11100
C642        C  0.77882177  0.53209072  0.95656937     0.11500
C643        C  0.79590922  0.51046204  0.95761659    -0.02900
C644        C  0.78705095  0.48712612  0.97273479    -0.05700
C645        C  0.76190560  0.48494502  0.98687139    -0.16400
C646        C  0.74494918  0.50663288  0.98618154     0.02500
C647        C  0.78673065  0.55733521  0.94079109     0.12400
C648        C  0.82337493  0.51211731  0.94291577     0.63100
H649        H  0.79971115  0.47028867  0.97367750     0.12500
C650        C  0.71755016  0.50489463  0.00091578     0.55200
H651        H  0.74127211  0.54692539  0.97074960     0.08300
C652        C  0.77929756  0.56459571  0.90620642    -0.05600
C653        C  0.78832345  0.58836159  0.89267292    -0.06300
C654        C  0.80346529  0.60544691  0.91303973    -0.15900
C655        C  0.81025680  0.59850064  0.94804658    -0.01500
C656        C  0.80177532  0.57441201  0.96125439    -0.09000
C657        C  0.76151833  0.54755434  0.88397765     0.65300
H658        H  0.78300777  0.59417089  0.86625759     0.10700
C659        C  0.82685717  0.61609571  0.97112584     0.63700
H660        H  0.80674308  0.56866735  0.98786653     0.08100
F661        F  0.70359524  0.48608502  0.98297984    -0.19400
F662        F  0.70421147  0.52814636  0.99774454    -0.15600
F663        F  0.71870892  0.49845105  0.03618509    -0.19100
F664        F  0.83766677  0.53026057  0.96159210    -0.22500
F665        F  0.82245095  0.51934392  0.90790725    -0.24000
F666        F  0.83633874  0.48860868  0.94516554    -0.18000
F667        F  0.81300964  0.63825617  0.97947727    -0.20400
F668        F  0.84944739  0.62288901  0.95358853    -0.21600
F669        F  0.83400017  0.60411075  0.00231619    -0.18800
F670        F  0.75728238  0.55790944  0.85082359    -0.18900
F671        F  0.73755934  0.54507374  0.90019345    -0.22700
F672        F  0.77248556  0.52325508  0.87993054    -0.24300
C673        C  0.05360800  0.30962564  0.90755284    -0.11100
C674        C  0.05239195  0.30202199  0.94283248     0.11500
C675        C  0.07527549  0.30233932  0.96379886    -0.02900
C676        C  0.09882482  0.31068672  0.94857862    -0.05700
C677        C  0.10030421  0.31827836  0.91302865    -0.16400
C678        C  0.07711777  0.31784100  0.89208561     0.02500
C679        C  0.02692950  0.29281284  0.95658104     0.12400
C680        C  0.07489683  0.29337142  0.00187768     0.63100
H681        H  0.11643813  0.31094917  0.96433595     0.12500
C682        C  0.07701151  0.32475016  0.85324315     0.55200
H683        H  0.03585082  0.30872246  0.89210852     0.08300
C684        C  0.00717684  0.31021554  0.96754746    -0.05600
C685        C  0.98376047  0.29999468  0.98087638    -0.06300
C686        C  0.97946337  0.27317176  0.98275877    -0.15900
C687        C  0.99892231  0.25579462  0.97090867    -0.01500
C688        C  0.02240200  0.26600262  0.95777228    -0.09000
C689        C  0.01084561  0.33938432  0.96512033     0.65300
H690        H  0.96852288  0.31287685  0.99006511     0.10700
C691        C  0.99497732  0.22666855  0.97258079     0.63700
H692        H  0.03757787  0.25311629  0.94842350     0.08100
F693        F  0.08335631  0.35060700  0.84892697    -0.19400
F694        F  0.05279659  0.32086081  0.83774965    -0.15600
F695        F  0.09476957  0.30930461  0.83577003    -0.19100
F696        F  0.06867420  0.26732032  0.00330062    -0.22500
F697        F  0.05653652  0.30728843  0.02057303    -0.24000
F698        F  0.09887794  0.29672720  0.01822211    -0.18000
F699        F  0.97469469  0.21961936  0.95046891    -0.20400
F700        F  0.98911335  0.21931154  0.00662992    -0.21600
F701        F  0.01707803  0.21325812  0.96227229    -0.18800
F702        F  0.98967461  0.35274001  0.97857750    -0.18900
F703        F  0.01374019  0.34658728  0.93033488    -0.22700
F704        F  0.03281965  0.34677552  0.98384203    -0.24300
C705        C  0.87651688  0.25669819  0.20512697    -0.11100
C706        C  0.90001206  0.26944134  0.19764490     0.11500
C707        C  0.90948366  0.28840418  0.22135197    -0.02900
C708        C  0.89393104  0.29551682  0.25007649    -0.05700
C709        C  0.86960227  0.28380308  0.25694380    -0.16400
C710        C  0.86121673  0.26314214  0.23464308     0.02500
C711        C  0.91061081  0.26676570  0.16145985     0.12400
C712        C  0.93505246  0.30279445  0.21628201     0.57500
H713        H  0.90077032  0.31110717  0.26686943     0.12500
C714        C  0.83567832  0.24878689  0.24024063     0.55200
H715        H  0.86931740  0.24273799  0.18612073     0.08300
C716        C  0.92261447  0.24379620  0.14893214    -0.05600
C717        C  0.92920539  0.24223641  0.11303198    -0.06300
C718        C  0.92466288  0.26305709  0.09005674    -0.15900
C719        C  0.91435642  0.28656779  0.10310277    -0.01500
C720        C  0.90723871  0.28792771  0.13866073    -0.09000
C721        C  0.92861627  0.22124589  0.17330283     0.65300
H722        H  0.93733808  0.22451034  0.10238114     0.10700
C723        C  0.91038675  0.30986889  0.07925552     0.63700
H724        H  0.89828739  0.30540527  0.14886659     0.08100
F725        F  0.83598347  0.23676525  0.27277117    -0.19400
F726        F  0.83159571  0.22975606  0.21509699    -0.15600
F727        F  0.81499329  0.26599180  0.23827046    -0.19100
F728        F  0.92981359  0.32778512  0.20508606    -0.22500
F729        F  0.95118777  0.29090213  0.19208153    -0.24000
F730        F  0.94849851  0.30394991  0.24792771    -0.18000
F731        F  0.89235917  0.30396991  0.05326038    -0.20400
F732        F  0.93381325  0.31655813  0.06378946    -0.21600
F733        F  0.90138679  0.33123457  0.09762194    -0.18800
F734        F  0.94395749  0.20271756  0.15700296    -0.18900
F735        F  0.90570856  0.20950313  0.18377844    -0.22700
F736        F  0.94198390  0.23005685  0.20267150    -0.24300
C737        C  0.76149516  0.36804657  0.20151450    -0.11100
C738        C  0.77525232  0.39007776  0.19074240     0.11500
C739        C  0.79491580  0.40045263  0.21275387    -0.02900
C740        C  0.80178641  0.38694270  0.24361679    -0.05700
C741        C  0.78973650  0.36334481  0.25316113    -0.16400
C742        C  0.76835723  0.35425883  0.23225422     0.02500
C743        C  0.76992459  0.40067525  0.15500279     0.12400
C744        C  0.80886742  0.42545989  0.20321970     0.63100
H745        H  0.81750618  0.39440308  0.25979881     0.12500
C746        C  0.75296230  0.32996583  0.24126501     0.55200
H747        H  0.74608220  0.36096916  0.18443305     0.08300
C748        C  0.78200643  0.38999569  0.12485975    -0.05600
C749        C  0.77658731  0.40100645  0.09177069    -0.06300
C750        C  0.75866802  0.42142849  0.08770248    -0.15900
C751        C  0.74574932  0.43139699  0.11771038    -0.01500
C752        C  0.75196947  0.42105912  0.15111480    -0.09000
C753        C  0.79986309  0.36649089  0.12753695     0.65300
H754        H  0.78570336  0.39317724  0.06844672     0.10700
C755        C  0.72471939  0.45197938  0.11427274     0.63700
H756        H  0.74253785  0.42846766  0.17446364     0.08100
F757        F  0.76844365  0.30825431  0.23665878    -0.19400
F758        F  0.73114285  0.32711215  0.21994953    -0.15600
F759        F  0.74443436  0.33121776  0.27570845    -0.19100
F760        F  0.79094470  0.44544790  0.20086857    -0.22500
F761        F  0.82128671  0.42276882  0.17122421    -0.24000
F762        F  0.82744944  0.43225673  0.22814868    -0.18000
F763        F  0.71303813  0.45728319  0.14624267    -0.20400
F764        F  0.70552592  0.44359623  0.09119085    -0.21600
F765        F  0.73545053  0.47472396  0.10179043    -0.18800
F766        F  0.81003635  0.35961028  0.09518054    -0.18900
F767        F  0.78599725  0.34552047  0.14022333    -0.22700
F768        F  0.82049394  0.37161780  0.15006221    -0.24300
C769        C  0.81139457  0.43332344  0.45669804    -0.11100
C770        C  0.80448249  0.45206835  0.43164515     0.11500
C771        C  0.80655691  0.44637150  0.39537714    -0.02900
C772        C  0.81381356  0.42116516  0.38534996    -0.05700
C773        C  0.81949276  0.40188332  0.41039316    -0.16400
C774        C  0.81910426  0.40820813  0.44674628     0.02500
C775        C  0.79561929  0.47772173  0.44438368     0.12400
C776        C  0.80117248  0.46683580  0.36749982     0.63100
H777        H  0.81471752  0.41618675  0.35770529     0.12500
C778        C  0.82757590  0.38900303  0.47490478     0.55200
H779        H  0.81041800  0.43853856  0.48426275     0.08300
C780        C  0.76961763  0.48204186  0.45549708    -0.05600
C781        C  0.76280934  0.50677064  0.46811154    -0.06300
C782        C  0.78122777  0.52681433  0.47009336    -0.15900
C783        C  0.80711432  0.52253137  0.45871473    -0.01500
C784        C  0.81395719  0.49782137  0.44625374    -0.09000
C785        C  0.74944072  0.46045438  0.45483363     0.65300
H786        H  0.74316806  0.51054081  0.47734793     0.10700
C787        C  0.82734260  0.54398826  0.46003347     0.63700
H788        H  0.83380089  0.49387245  0.43800282     0.08100
F789        F  0.80933685  0.36939166  0.47782246    -0.19400
F790        F  0.83004924  0.40072074  0.50753710    -0.15600
F791        F  0.85157504  0.37849118  0.46629699    -0.19100
F792        F  0.81879509  0.48696289  0.37107284    -0.22500
F793        F  0.77613520  0.47644450  0.37114839    -0.24000
F794        F  0.80353686  0.45695572  0.33379092    -0.18000
F795        F  0.85133899  0.53575758  0.44768019    -0.20400
F796        F  0.83063501  0.55237407  0.49432704    -0.21600
F797        F  0.81914290  0.56456162  0.43942157    -0.18800
F798        F  0.72493379  0.46930660  0.46427702    -0.18900
F799        F  0.75667052  0.44117464  0.47820175    -0.22700
F800        F  0.74757128  0.44998827  0.42142580    -0.24300
C801        C  0.00090022  0.30708428  0.45984048    -0.11100
C802        C  0.97927133  0.29074654  0.45532835     0.11500
C803        C  0.98095388  0.26427279  0.46504382    -0.02900
C804        C  0.00439444  0.25510010  0.47975493    -0.05700
C805        C  0.02586711  0.27150131  0.48476984    -0.16400
C806        C  0.02435375  0.29787933  0.47465695     0.02500
C807        C  0.95512404  0.30161828  0.43963832     0.12400
C808        C  0.95813744  0.24581012  0.45973534     0.63100
H809        H  0.00629534  0.23490723  0.48725441     0.12500
C810        C  0.04749973  0.31600882  0.47908496     0.55200
H811        H  0.99918449  0.32714873  0.45168100     0.08300
C812        C  0.93656034  0.31518355  0.45997120    -0.05600
C813        C  0.91290058  0.32264895  0.44394478    -0.06300
C814        C  0.90741498  0.31691840  0.40847714    -0.15900
C815        C  0.92637106  0.30354650  0.38809812    -0.01500
C816        C  0.95022012  0.29674595  0.40401777    -0.09000
C817        C  0.94176535  0.32156737  0.49839823     0.65300
H818        H  0.89834347  0.33289230  0.45914337     0.10700
C819        C  0.92118329  0.29518198  0.35034922     0.63700
H820        H  0.96502730  0.28662003  0.38909789     0.08100
F821        F  0.05293026  0.31940067  0.51444727    -0.19400
F822        F  0.04265636  0.34016091  0.46455663    -0.15600
F823        F  0.06919431  0.30566896  0.46269231    -0.19100
F824        F  0.95258326  0.24335467  0.42426826    -0.22500
F825        F  0.93631402  0.25515513  0.47683187    -0.24000
F826        F  0.96351915  0.22132272  0.47281681    -0.18000
F827        F  0.91993908  0.31676599  0.32888354    -0.20400
F828        F  0.89791611  0.28161716  0.34835317    -0.21600
F829        F  0.94069193  0.27916523  0.33764581    -0.18800
F830        F  0.92042872  0.33322161  0.51406134    -0.18900
F831        F  0.96268571  0.33839699  0.50093213    -0.22700
F832        F  0.94749577  0.29920196  0.51696583    -0.24300
C833        C  0.76500017  0.15544391  0.44605922    -0.11100
C834        C  0.79215349  0.15791352  0.44285083     0.11500
C835        C  0.80874644  0.13838401  0.45686239    -0.02900
C836        C  0.79730175  0.11681312  0.47338702    -0.05700
C837        C  0.77017587  0.11477094  0.47738120    -0.16400
C838        C  0.75367260  0.13435233  0.46365242     0.02500
C839        C  0.80186485  0.18283262  0.42863448     0.12400
C840        C  0.83837733  0.13943477  0.45608474     0.63100
H841        H  0.80974114  0.10191290  0.48468168     0.12500
C842        C  0.72432066  0.13345671  0.46890418     0.55200
H843        H  0.75275533  0.17088813  0.43586115     0.08300
C844        C  0.80484782  0.18731154  0.39223037    -0.05600
C845        C  0.81120380  0.21247428  0.38075067    -0.06300
C846        C  0.81376187  0.23331955  0.40447172    -0.15900
C847        C  0.81101910  0.22850523  0.44126457    -0.01500
C848        C  0.80552472  0.20313332  0.45251116    -0.09000
C849        C  0.80041182  0.16573196  0.36576294     0.65300
H850        H  0.81319448  0.21626148  0.35287693     0.10700
C851        C  0.81218496  0.24995976  0.46875569     0.63700
H852        H  0.80291099  0.19898897  0.48020555     0.08100
F853        F  0.71430104  0.11109091  0.45403991    -0.19400
F854        F  0.71188318  0.15445973  0.45349419    -0.15600
F855        F  0.71872634  0.13373563  0.50446041    -0.19100
F856        F  0.84796714  0.13788450  0.49012783    -0.22500
F857        F  0.84807324  0.16180033  0.44102666    -0.24000
F858        F  0.84764556  0.11850461  0.43713115    -0.18000
F859        F  0.80650715  0.24093104  0.50216600    -0.20400
F860        F  0.79412279  0.26903457  0.46066913    -0.21600
F861        F  0.83698644  0.26051801  0.46991135    -0.18800
F862        F  0.80544409  0.17374190  0.33170169    -0.18900
F863        F  0.77473237  0.15756869  0.36727063    -0.22700
F864        F  0.81666940  0.14504957  0.37339922    -0.24300
C865        C  0.70224136  0.30867057  0.44291351    -0.11100
C866        C  0.68554121  0.29335390  0.42231664     0.11500
C867        C  0.69235157  0.28778279  0.38714459    -0.02900
C868        C  0.71740209  0.29472649  0.37523736    -0.05700
C869        C  0.73544407  0.30785202  0.39700165    -0.16400
C870        C  0.72696095  0.31653722  0.43071071     0.02500
C871        C  0.66195397  0.28193274  0.43908712     0.12400
C872        C  0.67310696  0.27466344  0.36239460     0.63100
H873        H  0.72333879  0.28903181  0.34907931     0.12500
C874        C  0.74357495  0.33384848  0.45418460     0.55200
H875        H  0.69617660  0.31350622  0.46936958     0.08300
C876        C  0.66320321  0.25788814  0.45708912    -0.05600
C877        C  0.64026701  0.24781425  0.47209566    -0.06300
C878        C  0.61654469  0.26148529  0.47097068    -0.15900
C879        C  0.61561928  0.28612911  0.45444703    -0.01500
C880        C  0.63834052  0.29574071  0.43810331    -0.09000
C881        C  0.68890654  0.24342697  0.46149792     0.65300
H882        H  0.64082448  0.22949562  0.48596078     0.10700
C883        C  0.59113560  0.30271171  0.45562353     0.63700
H884        H  0.63802356  0.31434648  0.42497934     0.08100
F885        F  0.72882002  0.34529898  0.48038537    -0.19400
F886        F  0.75459739  0.35356901  0.43455773    -0.15600
F887        F  0.76303836  0.31939922  0.47017904    -0.19100
F888        F  0.65131095  0.29025375  0.35845317    -0.22500
F889        F  0.66551304  0.25094029  0.37578126    -0.24000
F890        F  0.68369690  0.27054427  0.32942595    -0.18000
F891        F  0.59526612  0.32709356  0.44150915    -0.20400
F892        F  0.58324299  0.30584791  0.49013050    -0.21600
F893        F  0.57135799  0.29096555  0.43660829    -0.18800
F894        F  0.68581990  0.22043335  0.47979739    -0.18900
F895        F  0.70642646  0.25866926  0.48000856    -0.22700
F896        F  0.69932692  0.23759274  0.42898067    -0.24300
C897        C  0.79587996  0.20937792  0.95502155    -0.11100
C898        C  0.81563907  0.21178496  0.92997658     0.11500
C899        C  0.81044889  0.20587441  0.89435343    -0.02900
C900        C  0.78469755  0.19968861  0.88445942    -0.05700
C901        C  0.76428689  0.19901445  0.90913962    -0.16400
C902        C  0.77007421  0.20337014  0.94536255     0.02500
C903        C  0.84130924  0.22146165  0.94227910     0.12400
C904        C  0.83200750  0.20617138  0.86708728     0.63100
H905        H  0.78019513  0.19585578  0.85709997     0.12500
C906        C  0.74921668  0.20311613  0.97372048     0.55200
H907        H  0.80078212  0.21335150  0.98223013     0.08300
C908        C  0.84597997  0.24831836  0.94711670    -0.05600
C909        C  0.86981850  0.25613117  0.96229522    -0.06300
C910        C  0.88822952  0.23791078  0.97403125    -0.15900
C911        C  0.88342614  0.21110735  0.96947701    -0.01500
C912        C  0.86008060  0.20329718  0.95300844    -0.09000
C913        C  0.82531726  0.26847185  0.93798216     0.65300
H914        H  0.87372179  0.27650472  0.96688810     0.10700
C915        C  0.90244080  0.19095698  0.98336957     0.63700
H916        H  0.85569640  0.18287416  0.94984101     0.08100
F917        F  0.75917743  0.20983119  0.00641222    -0.19400
F918        F  0.73868387  0.17852217  0.97654821    -0.15600
F919        F  0.72975593  0.22073496  0.96544127    -0.19100
F920        F  0.85079926  0.18803844  0.87598783    -0.22500
F921        F  0.84347747  0.23039164  0.86570532    -0.24000
F922        F  0.82267138  0.20025016  0.83378637    -0.18000
F923        F  0.89473282  0.16600790  0.97482571    -0.20400
F924        F  0.90406669  0.19273796  0.01962074    -0.21600
F925        F  0.92686457  0.19512090  0.96918481    -0.18800
F926        F  0.83433467  0.29348136  0.94319305    -0.18900
F927        F  0.80364636  0.26498277  0.95898015    -0.22700
F928        F  0.81789073  0.26614370  0.90312024    -0.24300
C929        C  0.68198879  0.30984571  0.94355680    -0.11100
C930        C  0.69403019  0.32724167  0.92044773     0.11500
C931        C  0.69915055  0.31943849  0.88550406    -0.02900
C932        C  0.69384548  0.29366458  0.87570307    -0.05700
C933        C  0.68375506  0.27537070  0.89963535    -0.16400
C934        C  0.67613177  0.28414689  0.93368138     0.02500
C935        C  0.70433653  0.35195852  0.93517414     0.12400
C936        C  0.71121812  0.33791475  0.85903527     0.63100
H937        H  0.69911394  0.28732212  0.84951061     0.12500
C938        C  0.66213370  0.26687564  0.95995733     0.55200
H939        H  0.67833304  0.31626078  0.97025994     0.08300
C940        C  0.68817918  0.37334253  0.94380614    -0.05600
C941        C  0.69942822  0.39473042  0.96140817    -0.06300
C942        C  0.72609938  0.39524423  0.97005545    -0.15900
C943        C  0.74245571  0.37457467  0.95943985    -0.01500
C944        C  0.73112962  0.35299774  0.94280757    -0.09000
C945        C  0.65924591  0.37341091  0.93491803     0.65300
H946        H  0.68734680  0.41084514  0.96964065     0.10700
C947        C  0.77178899  0.37544173  0.96540980     0.63700
H948        H  0.74309248  0.33639242  0.93615879     0.08100
F949        F  0.64146369  0.25437506  0.94362486    -0.19400
F950        F  0.65206498  0.28104376  0.98771812    -0.15600
F951        F  0.67927660  0.24880096  0.97382039    -0.19100
F952        F  0.73682092  0.34305558  0.86826201    -0.22500
F953        F  0.69738429  0.36091927  0.85818345    -0.24000
F954        F  0.71102236  0.32764247  0.82537526    -0.18000
F955        F  0.77739056  0.37530475  0.00099930    -0.20400
F956        F  0.78183181  0.39775335  0.95051580    -0.21600
F957        F  0.78425311  0.35440154  0.95030242    -0.18800
F958        F  0.64773127  0.39700397  0.94272549    -0.18900
F959        F  0.64661346  0.35438496  0.95390666    -0.22700
F960        F  0.65564959  0.36874466  0.89941604    -0.24300
C961        C  0.75064531  0.08637232  0.65803153    -0.11100
C962        C  0.73206837  0.10594278  0.66365304     0.11500
C963        C  0.71836756  0.11679013  0.63471213    -0.02900
C964        C  0.72290547  0.10672527  0.60099618    -0.05700
C965        C  0.74138889  0.08714955  0.59525790    -0.16400
C966        C  0.75590666  0.07702499  0.62392744     0.02500
C967        C  0.72781596  0.11563343  0.69989693     0.12400
C968        C  0.69971443  0.13950478  0.63923416     0.63100
H969        H  0.71258513  0.11459839  0.57847942     0.12500
C970        C  0.77743719  0.05728212  0.61822088     0.55200
H971        H  0.76126753  0.07885471  0.68050347     0.08300
C972        C  0.70831972  0.10516100  0.72173594    -0.05600
C973        C  0.70203610  0.11833643  0.75293091    -0.06300
C974        C  0.71470712  0.14151595  0.76306966    -0.15900
C975        C  0.73635150  0.15026578  0.74271375    -0.01500
C976        C  0.74233858  0.13704076  0.71131200    -0.09000
C977        C  0.69419348  0.08024441  0.71191650     0.65300
H978        H  0.68642989  0.11088370  0.76910595     0.10700
C979        C  0.75289301  0.17360885  0.75293834     0.63700
H980        H  0.75769175  0.14405077  0.69430987     0.08100
F981        F  0.79010062  0.05100327  0.64935714    -0.19400
F982        F  0.79573512  0.06725128  0.59525867    -0.15600
F983        F  0.76707353  0.03479783  0.60415717    -0.19100
F984        F  0.71314865  0.16063203  0.65246870    -0.22500
F985        F  0.67993426  0.13305140  0.66218794    -0.24000
F986        F  0.68834212  0.14681344  0.60762052    -0.18000
F987        F  0.76312125  0.17005648  0.78635797    -0.20400
F988        F  0.73798849  0.19595866  0.75202099    -0.21600
F989        F  0.77366083  0.17716507  0.73027375    -0.18800
F990        F  0.67532848  0.07374252  0.73632337    -0.18900
F991        F  0.71202077  0.06014904  0.71028768    -0.22700
F992        F  0.68204923  0.08273911  0.67952793    -0.24300
C993        C  0.63580944  0.23350295  0.69483334    -0.11100
C994        C  0.60853509  0.23322837  0.69407142     0.11500
C995        C  0.59452492  0.22532301  0.72414077    -0.02900
C996        C  0.60858738  0.21836004  0.75464688    -0.05700
C997        C  0.63605795  0.21754103  0.75513148    -0.16400
C998        C  0.64999355  0.22499729  0.72433739     0.02500
C999        C  0.59607485  0.23606511  0.65908874     0.12400
C1000       C  0.56499194  0.22282111  0.72329353     0.63100
H1001       H  0.59817958  0.21229160  0.77778674     0.12500
C1002       C  0.67943786  0.22186497  0.72089341     0.55200
H1003       H  0.64588858  0.23880126  0.67093914     0.08300
C1004       C  0.59196874  0.26041415  0.64278794    -0.05600
C1005       C  0.58389186  0.26088126  0.60732178    -0.06300
C1006       C  0.58083121  0.23792135  0.58783157    -0.15900
C1007       C  0.58513003  0.21363066  0.60425858    -0.01500
C1008       C  0.59236986  0.21320267  0.63985972    -0.09000
C1009       C  0.59719409  0.28563530  0.66222232     0.65300
H1010       H  0.58108368  0.27924415  0.59393470     0.10700
C1011       C  0.58341021  0.18831591  0.58400032     0.63700
H1012       H  0.59645291  0.19488282  0.65277849     0.08100
F1013       F  0.68799231  0.22695545  0.68708499    -0.19400
F1014       F  0.68636560  0.19659848  0.72882713    -0.15600
F1015       F  0.69222765  0.23882664  0.74325778    -0.19100
F1016       F  0.55784941  0.20318004  0.70044214    -0.22500
F1017       F  0.55380307  0.24576878  0.71204749    -0.24000
F1018       F  0.55501279  0.21702903  0.75614361    -0.18000
F1019       F  0.59951796  0.18925344  0.55493198    -0.20400
F1020       F  0.55796626  0.18418565  0.57324149    -0.21600
F1021       F  0.59100988  0.16731369  0.60433131    -0.18800
F1022       F  0.59064535  0.30704097  0.64201639    -0.18900
F1023       F  0.62339639  0.28738941  0.67078192    -0.22700
F1024       F  0.58270149  0.28655821  0.69274418    -0.24300
C1025       C  0.62961241  0.71342388  0.93922468    -0.11100
C1026       C  0.65258190  0.72826203  0.93824758     0.11500
C1027       C  0.65316487  0.75290018  0.95478906    -0.02900
C1028       C  0.63071631  0.76164261  0.97231730    -0.05700
C1029       C  0.60793702  0.74661729  0.97400201    -0.16400
C1030       C  0.60726694  0.72202025  0.95739856     0.02500
C1031       C  0.67598013  0.71751970  0.92018952     0.12400
C1032       C  0.67745719  0.76982040  0.95430658     0.63100
H1033       H  0.63082523  0.78030323  0.98544540     0.12500
C1034       C  0.58348147  0.70458205  0.96001028     0.55200
H1035       H  0.62952185  0.69478503  0.92607352     0.08300
C1036       C  0.69264738  0.69919023  0.93647516    -0.05600
C1037       C  0.71568799  0.69175632  0.91910829    -0.06300
C1038       C  0.72350289  0.70309295  0.88703578    -0.15900
C1039       C  0.70633754  0.72137823  0.87061685    -0.01500
C1040       C  0.68244718  0.72737460  0.88706251    -0.09000
C1041       C  0.68670846  0.68839460  0.97278341     0.65300
H1042       H  0.72849371  0.67778334  0.93158779     0.10700
C1043       C  0.71340100  0.73593285  0.83719420     0.63700
H1044       H  0.66907531  0.74109987  0.87511639     0.08100
F1045       F  0.58798091  0.68042799  0.94535108    -0.19400
F1046       F  0.56264536  0.71571403  0.94239072    -0.15600
F1047       F  0.57692713  0.70102049  0.99494678    -0.19100
F1048       F  0.68244446  0.77783417  0.92031085    -0.22500
F1049       F  0.69873621  0.75611590  0.96693937    -0.24000
F1050       F  0.67454745  0.79170367  0.97502332    -0.18000
F1051       F  0.71659635  0.71861801  0.80977361    -0.20400
F1052       F  0.73617284  0.74983332  0.84248686    -0.21600
F1053       F  0.69421796  0.75345498  0.82728794    -0.18800
F1054       F  0.70621569  0.67195478  0.98472990    -0.18900
F1055       F  0.66362233  0.67457025  0.97181975    -0.22700
F1056       F  0.68439477  0.70846332  0.99670415    -0.24300
C1057       C  0.69059685  0.00925060  0.95943514    -0.11100
C1058       C  0.70812226  0.02975846  0.95440389     0.11500
C1059       C  0.73480158  0.02660687  0.96361153    -0.02900
C1060       C  0.74325797  0.00236367  0.97637315    -0.05700
C1061       C  0.72573668  0.98179286  0.98098180    -0.16400
C1062       C  0.69896800  0.98521307  0.97283329     0.02500
C1063       C  0.69769596  0.05465457  0.94062534     0.12400
C1064       C  0.75406721  0.04887688  0.96059337     0.63100
H1065       H  0.76351997  0.99936910  0.98350840     0.12500
C1066       C  0.67938448  0.96358986  0.97867136     0.55200
H1067       H  0.67022957  0.01236336  0.95300762     0.08300
C1068       C  0.69428795  0.05918975  0.90422973    -0.05600
C1069       C  0.68603763  0.08389754  0.89307315    -0.06300
C1070       C  0.68042048  0.10390820  0.91714388    -0.15900
C1071       C  0.68176715  0.09841622  0.95389262    -0.01500
C1072       C  0.69065178  0.07384349  0.96482635    -0.09000
C1073       C  0.69918332  0.03793163  0.87738283     0.65300
H1074       H  0.68439469  0.08784728  0.86520799     0.10700
C1075       C  0.67394754  0.11798399  0.98185304     0.63700
H1076       H  0.69269266  0.06949386  0.99256914     0.08100
F1077       F  0.68636122  0.94209500  0.95910524    -0.19400
F1078       F  0.65438194  0.97085576  0.96876415    -0.15600
F1079       F  0.67890433  0.95696957  0.01391589    -0.19100
F1080       F  0.74647463  0.06901610  0.98226404    -0.22500
F1081       F  0.75492785  0.05765652  0.92626604    -0.24000
F1082       F  0.77906637  0.04151275  0.97042217    -0.18000
F1083       F  0.65025440  0.12927105  0.97317997    -0.20400
F1084       F  0.69294339  0.13691181  0.98481495    -0.21600
F1085       F  0.67113462  0.10643399  0.01451360    -0.18800
F1086       F  0.69548145  0.04661504  0.84324826    -0.18900
F1087       F  0.68210823  0.01762963  0.88307161    -0.22700
F1088       F  0.72451101  0.02891214  0.88040162    -0.24300
C1089       C  0.80566320  0.80838683  0.92928165    -0.11100
C1090       C  0.78687077  0.82329295  0.91167697     0.11500
C1091       C  0.77740595  0.81519598  0.87842222    -0.02900
C1092       C  0.78561070  0.79103433  0.86514714    -0.05700
C1093       C  0.80253938  0.77479834  0.88444303    -0.16400
C1094       C  0.81396014  0.78431891  0.91611402     0.02500
C1095       C  0.77676761  0.84663076  0.92989294     0.12400
C1096       C  0.75799787  0.83159287  0.85788955     0.63100
H1097       H  0.77736331  0.78390813  0.84072637     0.12500
C1098       C  0.83376817  0.76892069  0.93742328     0.55200
H1099       H  0.81293517  0.81521009  0.95445448     0.08300
C1100       C  0.75406239  0.84605883  0.95115263    -0.05600
C1101       C  0.74642983  0.86887983  0.96839414    -0.06300
C1102       C  0.76146278  0.89157802  0.96708750    -0.15900
C1103       C  0.78506912  0.89162916  0.94783702    -0.01500
C1104       C  0.79192755  0.86926708  0.92868849    -0.09000
C1105       C  0.73761375  0.82204784  0.95792293     0.65300
H1106       H  0.72885101  0.86870717  0.98432963     0.10700
C1107       C  0.80368363  0.91449946  0.94932483     0.63700
H1108       H  0.80974193  0.86895728  0.91336949     0.08100
F1109       F  0.84872201  0.78507513  0.95851580    -0.19400
F1110       F  0.85064602  0.75568288  0.91549224    -0.15600
F1111       F  0.82089223  0.75150776  0.95887745    -0.19100
F1112       F  0.76844096  0.85591213  0.85197587    -0.22500
F1113       F  0.73514155  0.83416771  0.87673228    -0.24000
F1114       F  0.75187889  0.82064601  0.82561774    -0.18000
F1115       F  0.80920320  0.92060684  0.98403067    -0.20400
F1116       F  0.82706592  0.90907145  0.93275851    -0.21600
F1117       F  0.79258908  0.93575051  0.93294727    -0.18800
F1118       F  0.71226018  0.82673687  0.94699531    -0.18900
F1119       F  0.73752621  0.81694181  0.99366839    -0.22700
F1120       F  0.74644271  0.80008511  0.94092073    -0.24300
C1121       C  0.80589714  0.82007598  0.43950888    -0.11100
C1122       C  0.82352253  0.80860898  0.41611578     0.11500
C1123       C  0.81617770  0.80512833  0.38049456    -0.02900
C1124       C  0.79042237  0.81105166  0.37026391    -0.05700
C1125       C  0.77196947  0.82063799  0.39436221    -0.16400
C1126       C  0.78045765  0.82702971  0.42903046     0.02500
C1127       C  0.84797083  0.79731499  0.43077916     0.12400
C1128       C  0.83495222  0.79384399  0.35374287     0.63100
H1129       H  0.78418562  0.80659644  0.34366650     0.12500
C1130       C  0.76299020  0.84065494  0.45543460     0.55200
H1131       H  0.81177529  0.82239854  0.46675899     0.08300
C1132       C  0.86915733  0.81256847  0.44299198    -0.05600
C1133       C  0.89032857  0.80003217  0.45971971    -0.06300
C1134       C  0.89095065  0.77296998  0.46391777    -0.15900
C1135       C  0.87040422  0.75770624  0.44976655    -0.01500
C1136       C  0.84904335  0.77029321  0.43414903    -0.09000
C1137       C  0.86924701  0.84185030  0.43882800     0.65300
H1138       H  0.90609188  0.81135252  0.47098398     0.10700
C1139       C  0.86944703  0.72827129  0.45065475     0.63700
H1140       H  0.83263427  0.75880785  0.42497055     0.08100
F1141       F  0.77741506  0.85139153  0.48268532    -0.19400
F1142       F  0.74557377  0.82316519  0.46976928    -0.15600
F1143       F  0.74945950  0.86062743  0.43921139    -0.19100
F1144       F  0.83749187  0.76744460  0.35896620    -0.22500
F1145       F  0.85919938  0.80540102  0.35703137    -0.24000
F1146       F  0.82620813  0.79789286  0.31965242    -0.18000
F1147       F  0.84785130  0.72041752  0.46954811    -0.20400
F1148       F  0.89131826  0.71699969  0.46550441    -0.21600
F1149       F  0.86711824  0.71908961  0.41656998    -0.18800
F1150       F  0.89300617  0.85249303  0.44863494    -0.18900
F1151       F  0.85012634  0.85278794  0.45961011    -0.22700
F1152       F  0.86456302  0.84834844  0.40406760    -0.24300
C1153       C  0.71470347  0.64382031  0.43147232    -0.11100
C1154       C  0.73090395  0.66570699  0.43181948     0.11500
C1155       C  0.75644685  0.66398183  0.44610011    -0.02900
C1156       C  0.76488012  0.64007900  0.45975843    -0.05700
C1157       C  0.74843520  0.61834325  0.46036485    -0.16400
C1158       C  0.72299178  0.62000810  0.44571651     0.02500
C1159       C  0.71988583  0.69065767  0.41935010     0.12400
C1160       C  0.77431653  0.68747656  0.44818146     0.63100
H1161       H  0.78410664  0.63841119  0.47169166     0.12500
C1162       C  0.70430943  0.59717976  0.44657235     0.55200
H1163       H  0.69510796  0.64584225  0.42083669     0.08300
C1164       C  0.71914456  0.69741730  0.38338911    -0.05600
C1165       C  0.70959149  0.72203268  0.37393746    -0.06300
C1166       C  0.70102018  0.74009913  0.39928271    -0.15900
C1167       C  0.70079893  0.73261894  0.43540778    -0.01500
C1168       C  0.70995440  0.70776693  0.44454104    -0.09000
C1169       C  0.72869571  0.67878039  0.35526608     0.65300
H1170       H  0.70935576  0.72755536  0.34649841     0.10700
C1171       C  0.69203929  0.75074699  0.46465333     0.63700
H1172       H  0.71022513  0.70162537  0.47175131     0.08100
F1173       F  0.71447616  0.57677085  0.42748145    -0.19400
F1174       F  0.68021415  0.60340092  0.43217145    -0.15600
F1175       F  0.70047808  0.58937945  0.48096684    -0.19100
F1176       F  0.76366460  0.70586292  0.47033985    -0.22500
F1177       F  0.77745367  0.69822001  0.41517274    -0.24000
F1178       F  0.79881714  0.68105220  0.46107865    -0.18000
F1179       F  0.66602709  0.75715621  0.45989345    -0.20400
F1180       F  0.70715018  0.77298047  0.46461217    -0.21600
F1181       F  0.69451016  0.73949827  0.49757822    -0.18800
F1182       F  0.72734564  0.68958738  0.32196686    -0.18900
F1183       F  0.71350310  0.65664438  0.35535754    -0.22700
F1184       F  0.75437958  0.67196945  0.36176728    -0.24300
C1185       C  0.71456854  0.91122757  0.21643767    -0.11100
C1186       C  0.72243458  0.89549820  0.18838656     0.11500
C1187       C  0.72555682  0.86856263  0.19336167    -0.02900
C1188       C  0.71871147  0.85790844  0.22594729    -0.05700
C1189       C  0.70936770  0.87327646  0.25394172    -0.16400
C1190       C  0.70809468  0.90066155  0.24945857     0.02500
C1191       C  0.72669276  0.90752256  0.15358369     0.12400
C1192       C  0.73618024  0.85117909  0.16436481     0.63100
H1193       H  0.72021685  0.83714706  0.22937597     0.12500
C1194       C  0.70027619  0.91886100  0.27900590     0.55200
H1195       H  0.71295575  0.93189521  0.21187588     0.08300
C1196       C  0.70604343  0.91026637  0.12895812    -0.05600
C1197       C  0.71198649  0.91873247  0.09482185    -0.06300
C1198       C  0.73765810  0.92469378  0.08513922    -0.15900
C1199       C  0.75797534  0.92367788  0.11043206    -0.01500
C1200       C  0.75210033  0.91499718  0.14454861    -0.09000
C1201       C  0.67798674  0.90401481  0.13866678     0.65300
H1202       H  0.69675122  0.92008612  0.07503088     0.10700
C1203       C  0.78554738  0.93191861  0.10134884     0.63700
H1204       H  0.76738476  0.91323648  0.16418308     0.08100
F1205       F  0.67401363  0.91598178  0.28627304    -0.19400
F1206       F  0.70448584  0.94457173  0.27024636    -0.15600
F1207       F  0.71493198  0.91350708  0.30882204    -0.19100
F1208       F  0.76132275  0.85870259  0.15617335    -0.22500
F1209       F  0.72076123  0.85298797  0.13450881    -0.24000
F1210       F  0.73692832  0.82538113  0.17441308    -0.18000
F1211       F  0.78528295  0.95722539  0.08930618    -0.20400
F1212       F  0.79552679  0.91597607  0.07546118    -0.21600
F1213       F  0.80206137  0.93065142  0.13026252    -0.18800
F1214       F  0.66102569  0.90796701  0.11068609    -0.18900
F1215       F  0.67018096  0.91979962  0.16606511    -0.22700
F1216       F  0.67587398  0.87840334  0.14897393    -0.24300
C1217       C  0.63394611  0.77428373  0.20084273    -0.11100
C1218       C  0.60891052  0.78467762  0.19639192     0.11500
C1219       C  0.59687032  0.79818838  0.22415821    -0.02900
C1220       C  0.61149154  0.80282524  0.25485973    -0.05700
C1221       C  0.63756063  0.79441001  0.25846577    -0.16400
C1222       C  0.64891208  0.77937199  0.23113839     0.02500
C1223       C  0.59701253  0.78280685  0.16104819     0.12400
C1224       C  0.56894100  0.80795844  0.22108334     0.63100
H1225       H  0.60300725  0.81416298  0.27562043     0.12500
C1226       C  0.67717214  0.77037884  0.23224514     0.55200
H1227       H  0.64227279  0.76355019  0.17914640     0.08300
C1228       C  0.60391993  0.80042132  0.13403598    -0.05600
C1229       C  0.59418744  0.79605008  0.09997768    -0.06300
C1230       C  0.57879299  0.77432985  0.09223262    -0.15900
C1231       C  0.57194543  0.75672876  0.11914586    -0.01500
C1232       C  0.58094496  0.76151280  0.15353483    -0.09000
C1233       C  0.62235654  0.82305567  0.14083245     0.65300
H1234       H  0.59940900  0.80897641  0.07864819     0.10700
C1235       C  0.55640796  0.73241350  0.11101843     0.63700
H1236       H  0.57649048  0.74807220  0.17458342     0.08100
F1237       F  0.69350801  0.79152717  0.23627063    -0.19400
F1238       F  0.68431344  0.75773215  0.20162254    -0.15600
F1239       F  0.68084015  0.75331283  0.25988636    -0.19100
F1240       F  0.55227563  0.78717609  0.21625391    -0.22500
F1241       F  0.56644419  0.82460479  0.19276933    -0.24000
F1242       F  0.56119819  0.82116446  0.25099599    -0.18000
F1243       F  0.57012712  0.71715671  0.08756201    -0.20400
F1244       F  0.53258009  0.73900172  0.09627942    -0.21600
F1245       F  0.55176254  0.71789062  0.14096606    -0.18800
F1246       F  0.62553012  0.83828861  0.11117639    -0.18900
F1247       F  0.64667012  0.81388120  0.15072970    -0.22700
F1248       F  0.61274079  0.83865978  0.16732814    -0.24300
C1249       C  0.69140423  0.93628378  0.47130665    -0.11100
C1250       C  0.69649856  0.95707466  0.44858144     0.11500
C1251       C  0.69474427  0.95332783  0.41174122    -0.02900
C1252       C  0.68824388  0.92854631  0.39884374    -0.05700
C1253       C  0.68414221  0.90737668  0.42147741    -0.16400
C1254       C  0.68504757  0.91142253  0.45846019     0.02500
C1255       C  0.70636563  0.98170403  0.46409445     0.12400
C1256       C  0.70061447  0.97517566  0.38613746     0.63100
H1257       H  0.68732966  0.92526882  0.37074740     0.12500
C1258       C  0.67907608  0.88985290  0.48442610     0.55200
H1259       H  0.69319884  0.93956291  0.49934544     0.08300
C1260       C  0.68960221  0.00135907  0.47699487    -0.05600
C1261       C  0.70081488  0.02432761  0.49043079    -0.06300
C1262       C  0.72801072  0.02758062  0.49251347    -0.15900
C1263       C  0.74466590  0.00719247  0.48176441    -0.01500
C1264       C  0.73349749  0.98466935  0.46724726    -0.09000
C1265       C  0.66016753  0.99774654  0.47750710     0.65300
H1266       H  0.68844753  0.03988208  0.49984182     0.10700
C1267       C  0.77403902  0.00892820  0.48676442     0.63700
H1268       H  0.74590054  0.96898110  0.45832041     0.08100
F1269       F  0.67614062  0.89926922  0.51829439    -0.19400
F1270       F  0.69925915  0.87203815  0.48482180    -0.15600
F1271       F  0.65605924  0.87757054  0.47501382    -0.19100
F1272       F  0.72636058  0.98275767  0.38975912    -0.22500
F1273       F  0.68465731  0.99619487  0.39276394    -0.24000
F1274       F  0.69659524  0.96770648  0.35153671    -0.18000
F1275       F  0.78640573  0.98603018  0.47767417    -0.20400
F1276       F  0.77976260  0.01408804  0.52168889    -0.21600
F1277       F  0.78402800  0.02851421  0.46602151    -0.18800
F1278       F  0.64755662  0.01915514  0.49138880    -0.18900
F1279       F  0.65396381  0.97649428  0.49797066    -0.22700
F1280       F  0.65073682  0.99378789  0.44382389    -0.24300
C1281       C  0.24530046  0.84128335  0.44815914    -0.11100
C1282       C  0.21945578  0.84240130  0.43593774     0.11500
C1283       C  0.20443452  0.86511985  0.44127883    -0.02900
C1284       C  0.21586514  0.88598335  0.45962717    -0.05700
C1285       C  0.24147030  0.88444752  0.47273085    -0.16400
C1286       C  0.25674184  0.86211705  0.46623203     0.02500
C1287       C  0.20837916  0.81848372  0.42027678     0.12400
C1288       C  0.17640675  0.86706459  0.42830540     0.63100
H1289       H  0.20460937  0.90331825  0.46503724     0.12500
C1290       C  0.28485689  0.86018370  0.47884267     0.55200
H1291       H  0.25623901  0.82351921  0.44429092     0.08300
C1292       C  0.21545589  0.80981036  0.38635607    -0.05600
C1293       C  0.20758563  0.78492032  0.37568801    -0.06300
C1294       C  0.19322538  0.76846156  0.39794168    -0.15900
C1295       C  0.18447640  0.77807703  0.43086472    -0.01500
C1296       C  0.19269015  0.80284926  0.44165345    -0.09000
C1297       C  0.23202796  0.82635005  0.36204050     0.65300
H1298       H  0.21403973  0.77757489  0.35049555     0.10700
C1299       C  0.16659254  0.76258316  0.45470134     0.63700
H1300       H  0.18776946  0.80984037  0.46768047     0.08100
F1301       F  0.29874318  0.88163500  0.46771418    -0.19400
F1302       F  0.29712692  0.83829319  0.46583114    -0.15600
F1303       F  0.28559391  0.85897134  0.51514195    -0.19100
F1304       F  0.16090346  0.84971333  0.44636192    -0.22500
F1305       F  0.17517040  0.86146475  0.39276873    -0.24000
F1306       F  0.16626276  0.89167659  0.43325346    -0.18000
F1307       F  0.15583098  0.77798581  0.48071843    -0.20400
F1308       F  0.14624848  0.75214787  0.43523582    -0.21600
F1309       F  0.18044296  0.74289772  0.47097418    -0.18800
F1310       F  0.23407632  0.81547793  0.32885442    -0.18900
F1311       F  0.25693152  0.82892409  0.37575301    -0.22700
F1312       F  0.22099551  0.85066725  0.35832403    -0.24300
C1313       C  0.55787963  0.79851150  0.40903081    -0.11100
C1314       C  0.55239921  0.80468569  0.44406555     0.11500
C1315       C  0.57125466  0.81783390  0.46473273    -0.02900
C1316       C  0.59488096  0.82532322  0.44891384    -0.05700
C1317       C  0.60014611  0.81985596  0.41340790    -0.16400
C1318       C  0.58142564  0.80593858  0.39313821     0.02500
C1319       C  0.52685914  0.79637728  0.45839220     0.12400
C1320       C  0.56660192  0.82345884  0.50341686     0.63100
H1321       H  0.60952814  0.83543946  0.46423142     0.12500
C1322       C  0.58620264  0.79860697  0.35505267     0.55200
H1323       H  0.54331402  0.78793840  0.39413921     0.08300
C1324       C  0.50359717  0.81048289  0.45174974    -0.05600
C1325       C  0.47998159  0.80102081  0.46543777    -0.06300
C1326       C  0.47911610  0.77803119  0.48506769    -0.15900
C1327       C  0.50227175  0.76370920  0.49117507    -0.01500
C1328       C  0.52587285  0.77311839  0.47743597    -0.09000
C1329       C  0.50375113  0.83532794  0.43026102     0.65300
H1330       H  0.46193712  0.81149911  0.46101033     0.10700
C1331       C  0.50189266  0.73846667  0.51169371     0.63700
H1332       H  0.54382627  0.76240080  0.48140923     0.08100
F1333       F  0.58633586  0.82081638  0.33478048    -0.19400
F1334       F  0.56695036  0.78237772  0.34191189    -0.15600
F1335       F  0.60987052  0.78586590  0.35200984    -0.19100
F1336       F  0.56469659  0.80040259  0.52175904    -0.22500
F1337       F  0.54372425  0.83734437  0.50747700    -0.24000
F1338       F  0.58675051  0.83776225  0.51813542    -0.18000
F1339       F  0.52624377  0.72681439  0.51274805    -0.20400
F1340       F  0.48458008  0.72134892  0.49608118    -0.21600
F1341       F  0.49420459  0.74311029  0.54592623    -0.18800
F1342       F  0.47917534  0.84643074  0.42812319    -0.18900
F1343       F  0.51200028  0.83016948  0.39641245    -0.22700
F1344       F  0.52044749  0.85317862  0.44551271    -0.24300
C1345       C  0.30046276  0.70186421  0.44952968    -0.11100
C1346       C  0.31960663  0.70665306  0.42420653     0.11500
C1347       C  0.31410673  0.70167897  0.38838876    -0.02900
C1348       C  0.28842660  0.69478858  0.37865897    -0.05700
C1349       C  0.26845223  0.69197890  0.40374874    -0.16400
C1350       C  0.27484182  0.69469212  0.44012223     0.02500
C1351       C  0.34446010  0.71872851  0.43625598     0.12400
C1352       C  0.33533103  0.70361979  0.36079919     0.63100
H1353       H  0.28362096  0.69201738  0.35113276     0.12500
C1354       C  0.25470255  0.69145305  0.46906053     0.55200
H1355       H  0.30557066  0.70509161  0.47687628     0.08300
C1356       C  0.34590117  0.74565532  0.44361850    -0.05600
C1357       C  0.36867513  0.75550846  0.45944637    -0.06300
C1358       C  0.38989899  0.73944398  0.46773061    -0.15900
C1359       C  0.38913458  0.71286068  0.45852918    -0.01500
C1360       C  0.36613803  0.70281024  0.44318317    -0.09000
C1361       C  0.32327693  0.76383720  0.43544899     0.65300
H1362       H  0.36977516  0.77579543  0.46679697     0.10700
C1363       C  0.41225823  0.69522744  0.46581630     0.63700
H1364       H  0.36459356  0.68229333  0.43740298     0.08100
F1365       F  0.24552599  0.66623544  0.46916720    -0.19400
F1366       F  0.26507607  0.69645620  0.50208969    -0.15600
F1367       F  0.23417425  0.70847507  0.46371671    -0.19100
F1368       F  0.35465714  0.68564509  0.36808995    -0.22500
F1369       F  0.34617158  0.72815751  0.36093494    -0.24000
F1370       F  0.32579352  0.69869458  0.32731657    -0.18000
F1371       F  0.41783802  0.69499584  0.50145962    -0.20400
F1372       F  0.43382418  0.70411451  0.44773132    -0.21600
F1373       F  0.40745079  0.66999508  0.45519069    -0.18800
F1374       F  0.32937460  0.78937770  0.44312029    -0.18900
F1375       F  0.30170193  0.75708858  0.45509005    -0.22700
F1376       F  0.31695165  0.76239337  0.40010684    -0.24300
C1377       C  0.19234148  0.79599940  0.94315231    -0.11100
C1378       C  0.17480902  0.78753370  0.91721280     0.11500
C1379       C  0.18201570  0.78863397  0.88144115    -0.02900
C1380       C  0.20789701  0.79540486  0.87318357    -0.05700
C1381       C  0.22634424  0.80203363  0.89939176    -0.16400
C1382       C  0.21799391  0.80358527  0.93503744     0.02500
C1383       C  0.14934403  0.77717124  0.92925540     0.12400
C1384       C  0.16240510  0.78310712  0.85226229     0.63100
H1385       H  0.21399868  0.79530790  0.84595165     0.12500
C1386       C  0.23586327  0.81241596  0.96478509     0.55200
H1387       H  0.18580724  0.79586909  0.97021428     0.08300
C1388       C  0.14683071  0.75111592  0.94062103    -0.05600
C1389       C  0.12379703  0.74363460  0.95789344    -0.06300
C1390       C  0.10380720  0.76148171  0.96494653    -0.15900
C1391       C  0.10597860  0.78728679  0.95259999    -0.01500
C1392       C  0.12876715  0.79467095  0.93458939    -0.09000
C1393       C  0.16912264  0.73181021  0.93683052     0.65300
H1394       H  0.12190692  0.72412384  0.96820201     0.10700
C1395       C  0.08474708  0.80708805  0.95975090     0.63700
H1396       H  0.13132115  0.81456938  0.92607711     0.08100
F1397       F  0.25740475  0.79629743  0.96701154    -0.19400
F1398       F  0.22346673  0.81191153  0.99706961    -0.15600
F1399       F  0.24380609  0.83766669  0.95883451    -0.19100
F1400       F  0.14190375  0.80046185  0.85451692    -0.22500
F1401       F  0.15273420  0.75822020  0.85523697    -0.24000
F1402       F  0.17345034  0.78560202  0.81925498    -0.18000
F1403       F  0.09128055  0.83141204  0.94717203    -0.20400
F1404       F  0.08057404  0.80915554  0.99557012    -0.21600
F1405       F  0.06186850  0.79938109  0.94340212    -0.18800
F1406       F  0.16192370  0.70715831  0.94741234    -0.18900
F1407       F  0.19008843  0.73958518  0.95729694    -0.22700
F1408       F  0.17697419  0.73029892  0.90218554    -0.24300
C1409       C  0.31277952  0.69848044  0.94484504    -0.11100
C1410       C  0.30085463  0.68013899  0.92283236     0.11500
C1411       C  0.29687658  0.68593362  0.88680723    -0.02900
C1412       C  0.30254281  0.71105497  0.87484862    -0.05700
C1413       C  0.31202204  0.73035284  0.89771655    -0.16400
C1414       C  0.31934442  0.72334015  0.93262639     0.02500
C1415       C  0.28875826  0.65706729  0.93929244     0.12400
C1416       C  0.28582726  0.66594933  0.86136933     0.63100
H1417       H  0.29779395  0.71622454  0.84793175     0.12500
C1418       C  0.33367937  0.74175323  0.95730489     0.55200
H1419       H  0.31556670  0.69373286  0.97240498     0.08300
C1420       C  0.30329676  0.63555231  0.95175119    -0.05600
C1421       C  0.28978984  0.61501008  0.96797211    -0.06300
C1422       C  0.26253802  0.61552879  0.97164549    -0.15900
C1423       C  0.24806281  0.63677449  0.95839303    -0.01500
C1424       C  0.26158042  0.65754408  0.94329251    -0.09000
C1425       C  0.33278512  0.63442117  0.94822067     0.65300
H1426       H  0.30043266  0.59865835  0.97877167     0.10700
C1427       C  0.21846522  0.63734757  0.95977826     0.63700
H1428       H  0.25097049  0.67448898  0.93423514     0.08100
F1429       F  0.34502574  0.72856644  0.98520765    -0.19400
F1430       F  0.31653816  0.75979557  0.97101702    -0.15600
F1431       F  0.35344221  0.75433311  0.93941371    -0.19100
F1432       F  0.26032010  0.66008509  0.86986836    -0.22500
F1433       F  0.30065563  0.64357497  0.86288383    -0.24000
F1434       F  0.28602129  0.67482302  0.82700059    -0.18000
F1435       F  0.21024977  0.63835437  0.99429630    -0.20400
F1436       F  0.20857869  0.61528737  0.94395608    -0.21600
F1437       F  0.20824473  0.65864257  0.94227150    -0.18800
F1438       F  0.34276237  0.61094965  0.95979213    -0.18900
F1439       F  0.34419756  0.65387772  0.96799211    -0.22700
F1440       F  0.33969055  0.63752736  0.91337271    -0.24300
C1441       C  0.26752437  0.89776168  0.72531386    -0.11100
C1442       C  0.26242457  0.88272440  0.69537709     0.11500
C1443       C  0.26177139  0.85531959  0.69792254    -0.02900
C1444       C  0.26716851  0.84384485  0.73064693    -0.05700
C1445       C  0.27436560  0.85884000  0.75990969    -0.16400
C1446       C  0.27328995  0.88622861  0.75787323     0.02500
C1447       C  0.26197071  0.89592184  0.66091527     0.12400
C1448       C  0.25705949  0.83822123  0.66586546     0.63100
H1449       H  0.26810103  0.82290689  0.73282921     0.12500
C1450       C  0.28049861  0.90350683  0.78865176     0.55200
H1451       H  0.26844248  0.91867654  0.72260777     0.08300
C1452       C  0.23883148  0.90596433  0.64583376    -0.05600
C1453       C  0.23976768  0.91534644  0.61111516    -0.06300
C1454       C  0.26326206  0.91587289  0.59222316    -0.15900
C1455       C  0.28682718  0.90799962  0.60867246    -0.01500
C1456       C  0.28570266  0.89807263  0.64298639    -0.09000
C1457       C  0.21357932  0.90698400  0.66653594     0.65300
H1458       H  0.22203485  0.92184014  0.59806943     0.10700
C1459       C  0.31284317  0.90932588  0.58974769     0.63700
H1460       H  0.30330698  0.89105541  0.65587177     0.08100
F1461       F  0.26787794  0.92718979  0.78620180    -0.19400
F1462       F  0.30712303  0.90773506  0.78843560    -0.15600
F1463       F  0.27344355  0.89230060  0.82029001    -0.19100
F1464       F  0.27600648  0.84272865  0.64085382    -0.22500
F1465       F  0.23285029  0.84347587  0.65138705    -0.24000
F1466       F  0.25782214  0.81211572  0.67433813    -0.18000
F1467       F  0.33306157  0.89959284  0.61017033    -0.20400
F1468       F  0.31862643  0.93481989  0.58177878    -0.21600
F1469       F  0.31171872  0.89505228  0.55900026    -0.18800
F1470       F  0.19337670  0.91758973  0.64693748    -0.18900
F1471       F  0.21714034  0.92211876  0.69620406    -0.22700
F1472       F  0.20622487  0.88237750  0.67682790    -0.24300
C1473       C  0.36535006  0.76919355  0.69769473    -0.11100
C1474       C  0.38734811  0.78400097  0.68941895     0.11500
C1475       C  0.39681517  0.80250096  0.71373845    -0.02900
C1476       C  0.38291417  0.80645430  0.74507642    -0.05700
C1477       C  0.36016311  0.79227183  0.75319519    -0.16400
C1478       C  0.35197178  0.77227007  0.72964406     0.02500
C1479       C  0.39906179  0.78043467  0.65413330     0.12400
C1480       C  0.42155215  0.81789723  0.70673730     0.63100
H1481       H  0.38955558  0.82129759  0.76310868     0.12500
C1482       C  0.32946005  0.75397264  0.73747771     0.55200
H1483       H  0.35841487  0.75536560  0.67835409     0.08300
C1484       C  0.41398268  0.75821295  0.64546061    -0.05600
C1485       C  0.42249702  0.75516258  0.61057259    -0.06300
C1486       C  0.41619920  0.77339190  0.58454152    -0.15900
C1487       C  0.40187216  0.79589486  0.59333816    -0.01500
C1488       C  0.39330827  0.79893306  0.62814510    -0.09000
C1489       C  0.42001043  0.73736364  0.67252885     0.65300
H1490       H  0.43331821  0.73799386  0.60297824     0.10700
C1491       C  0.39538048  0.81629513  0.56583570     0.63700
H1492       H  0.38144232  0.81552193  0.63523961     0.08100
F1493       F  0.33248837  0.74349143  0.77076775    -0.19400
F1494       F  0.32845169  0.73350575  0.71390251    -0.15600
F1495       F  0.30597989  0.76714181  0.73520594    -0.19100
F1496       F  0.41842566  0.83314791  0.67713317    -0.22500
F1497       F  0.44220273  0.80107615  0.70159557    -0.24000
F1498       F  0.42790964  0.83405360  0.73459361    -0.18000
F1499       F  0.41808735  0.82493654  0.55018528    -0.20400
F1500       F  0.38286729  0.83751729  0.58037746    -0.21600
F1501       F  0.37918070  0.80579443  0.54035135    -0.18800
F1502       F  0.43806172  0.71965029  0.66009862    -0.18900
F1503       F  0.39743475  0.72405908  0.68071973    -0.22700
F1504       F  0.43013115  0.74839678  0.70281511    -0.24300
C1505       C  0.43909185  0.80052259  0.91261323    -0.11100
C1506       C  0.44322374  0.80614266  0.94828447     0.11500
C1507       C  0.42375752  0.81934387  0.96761380    -0.02900
C1508       C  0.39974125  0.82471579  0.95101948    -0.05700
C1509       C  0.39529998  0.81837013  0.91559399    -0.16400
C1510       C  0.41536631  0.80650276  0.89572304     0.02500
C1511       C  0.46830546  0.79783325  0.96434924     0.12400
C1512       C  0.42844736  0.82797226  0.00531886     0.63100
H1513       H  0.38424298  0.83408776  0.96547493     0.12500
C1514       C  0.41152805  0.79945345  0.85723480     0.55200
H1515       H  0.45459711  0.79107480  0.89825971     0.08300
C1516       C  0.47252728  0.77193737  0.97552951    -0.05600
C1517       C  0.49730468  0.76504781  0.98871341    -0.06300
C1518       C  0.51764374  0.78316216  0.99070280    -0.15900
C1519       C  0.51335076  0.80905283  0.97982836    -0.01500
C1520       C  0.48866274  0.81592170  0.96641985    -0.09000
C1521       C  0.45103753  0.75168813  0.97316914     0.65300
H1522       H  0.50111264  0.74538486  0.99739200     0.10700
C1523       C  0.53483896  0.82920283  0.98241026     0.63700
H1524       H  0.48503553  0.83548141  0.95721409     0.08100
F1525       F  0.38967054  0.78394475  0.85339334    -0.19400
F1526       F  0.43271897  0.78604015  0.84392478    -0.15600
F1527       F  0.40839467  0.82177260  0.83752121    -0.19100
F1528       F  0.44873127  0.84562732  0.00634874    -0.22500
F1529       F  0.43480052  0.80690054  0.02612957    -0.24000
F1530       F  0.40661492  0.83978544  0.01950778    -0.18000
F1531       F  0.55608010  0.82136106  0.96278529    -0.20400
F1532       F  0.54243615  0.83214900  0.01714931    -0.21600
F1533       F  0.52673213  0.85313703  0.96998114    -0.18800
F1534       F  0.45881172  0.72818108  0.98737248    -0.18900
F1535       F  0.44428198  0.74756973  0.93835995    -0.22700
F1536       F  0.42926503  0.76002854  0.99130246    -0.24300
C1537       C  0.49938307  0.19573286  0.95887321    -0.11100
C1538       C  0.52219455  0.21030565  0.96364912     0.11500
C1539       C  0.52149803  0.23384830  0.98278298    -0.02900
C1540       C  0.49770349  0.24179375  0.99742821    -0.05700
C1541       C  0.47484634  0.22734469  0.99243806    -0.16400
C1542       C  0.47546649  0.20394923  0.97296858     0.02500
C1543       C  0.54644880  0.20113772  0.94694462     0.12400
C1544       C  0.54557845  0.25085205  0.98666204     0.63100
H1545       H  0.49655104  0.25972487  0.01220698     0.12500
C1546       C  0.45106554  0.18770791  0.96748600     0.55200
H1547       H  0.50049039  0.17798501  0.94370053     0.08300
C1548       C  0.56398736  0.18422780  0.96438071    -0.05600
C1549       C  0.58816067  0.17900168  0.94855148    -0.06300
C1550       C  0.59434005  0.18904069  0.91532807    -0.15900
C1551       C  0.57595801  0.20449235  0.89688912    -0.01500
C1552       C  0.55223307  0.21047854  0.91330220    -0.09000
C1553       C  0.55686923  0.17140780  0.99900542     0.65300
H1554       H  0.60236856  0.16680815  0.96179458     0.10700
C1555       C  0.58162652  0.21502857  0.86046463     0.63700
H1556       H  0.53810458  0.22290533  0.90030922     0.08100
F1557       F  0.45627684  0.16510609  0.94916145    -0.19400
F1558       F  0.43268208  0.20162407  0.94857806    -0.15600
F1559       F  0.44073180  0.18097012  0.99971236    -0.19100
F1560       F  0.55305850  0.25981557  0.95395952    -0.22500
F1561       F  0.56593413  0.23689612  0.00135349    -0.24000
F1562       F  0.54094017  0.27210467  0.00799039    -0.18000
F1563       F  0.58433463  0.19461840  0.83722334    -0.20400
F1564       F  0.60440612  0.22942470  0.86115422    -0.21600
F1565       F  0.56169987  0.23081418  0.84814516    -0.18800
F1566       F  0.57710443  0.15634522  0.01204461    -0.18900
F1567       F  0.53541492  0.15555921  0.99391949    -0.22700
F1568       F  0.55086317  0.18989372  0.02401696    -0.24300
C1569       C  0.36489838  0.30673224  0.95219267    -0.11100
C1570       C  0.34397588  0.29028679  0.94372928     0.11500
C1571       C  0.34592702  0.26330234  0.95019379    -0.02900
C1572       C  0.36809130  0.25392768  0.96788749    -0.05700
C1573       C  0.38836889  0.27055511  0.97801530    -0.16400
C1574       C  0.38737724  0.29714551  0.96921271     0.02500
C1575       C  0.31978999  0.30157502  0.92880630     0.12400
C1576       C  0.32466234  0.24457896  0.93847131     0.63100
H1577       H  0.36963288  0.23354902  0.97457572     0.12500
C1578       C  0.40986962  0.31508885  0.97830038     0.55200
H1579       H  0.36319390  0.32718102  0.94604983     0.08300
C1580       C  0.29929930  0.31019187  0.95057587    -0.05600
C1581       C  0.27492995  0.31562371  0.93507303    -0.06300
C1582       C  0.27053836  0.31279086  0.89858999    -0.15900
C1583       C  0.29218590  0.30668304  0.87656413    -0.01500
C1584       C  0.31648243  0.30121683  0.89231787    -0.09000
C1585       C  0.30307912  0.31292314  0.99010473     0.65300
H1586       H  0.25881265  0.32096318  0.95181675     0.10700
C1587       C  0.29012815  0.30557777  0.83673708     0.63700
H1588       H  0.33283246  0.29514952  0.87639728     0.08100
F1589       F  0.41384737  0.31538861  0.01432137    -0.19400
F1590       F  0.40515770  0.34024320  0.96727383    -0.15600
F1591       F  0.43234196  0.30642978  0.96203867    -0.19100
F1592       F  0.32215039  0.24538124  0.90225344    -0.22500
F1593       F  0.30107935  0.25125669  0.95349639    -0.24000
F1594       F  0.33033100  0.21927864  0.94800250    -0.18000
F1595       F  0.31443479  0.30414443  0.82105599    -0.20400
F1596       F  0.27800064  0.32777441  0.82446553    -0.21600
F1597       F  0.27611967  0.28389493  0.82655243    -0.18800
F1598       F  0.28082893  0.32214857  0.00642236    -0.18900
F1599       F  0.32314402  0.33015589  0.99693265    -0.22700
F1600       F  0.30925687  0.28916183  0.00479753    -0.24300
C1601       C  0.26314798  0.98564184  0.94542326    -0.11100
C1602       C  0.28649223  0.97476407  0.95785234     0.11500
C1603       C  0.30255004  0.98898930  0.98126874    -0.02900
C1604       C  0.29464108  0.01402073  0.99120122    -0.05700
C1605       C  0.27104031  0.02496755  0.97918298    -0.16400
C1606       C  0.25455558  0.01017331  0.95658863     0.02500
C1607       C  0.29405493  0.94883711  0.94451702     0.12400
C1608       C  0.32805188  0.97795141  0.99542045     0.63100
H1609       H  0.30716367  0.02548916  0.00811550     0.12500
C1610       C  0.22800090  0.01942767  0.94367084     0.55200
H1611       H  0.25148266  0.97463210  0.92686184     0.08300
C1612       C  0.28200346  0.92577860  0.95635074    -0.05600
C1613       C  0.28932480  0.90213906  0.94085865    -0.06300
C1614       C  0.30857876  0.90083471  0.91463256    -0.15900
C1615       C  0.32164764  0.92392339  0.90435366    -0.01500
C1616       C  0.31344591  0.94763190  0.91877024    -0.09000
C1617       C  0.26153683  0.92610086  0.98515568     0.65300
H1618       H  0.27965226  0.88445084  0.94880595     0.10700
C1619       C  0.34481399  0.92378258  0.87953161     0.63700
H1620       H  0.32217867  0.96560633  0.91004207     0.08100
F1621       F  0.21157786  0.99858104  0.93744898    -0.19400
F1622       F  0.23094123  0.03288449  0.91248859    -0.15600
F1623       F  0.21587837  0.03508497  0.96819622    -0.19100
F1624       F  0.34595432  0.97582207  0.96850918    -0.22500
F1625       F  0.32386965  0.95371988  0.00988729    -0.24000
F1626       F  0.33881054  0.99359720  0.02130499    -0.18000
F1627       F  0.33658832  0.91827039  0.84571271    -0.20400
F1628       F  0.36283835  0.90540651  0.89036755    -0.21600
F1629       F  0.35735276  0.94755577  0.87883630    -0.18800
F1630       F  0.25444098  0.90128528  0.99520979    -0.18900
F1631       F  0.23936535  0.93876178  0.97341584    -0.22700
F1632       F  0.27119948  0.93874971  0.01453550    -0.24300
C1633       C  0.20478350  0.18960051  0.87411171    -0.11100
C1634       C  0.21050349  0.18519253  0.90965482     0.11500
C1635       C  0.20704154  0.20527311  0.93446973    -0.02900
C1636       C  0.19885404  0.22964045  0.92249734    -0.05700
C1637       C  0.19488509  0.23501536  0.88649626    -0.16400
C1638       C  0.19677533  0.21417824  0.86183684     0.02500
C1639       C  0.22117378  0.15973937  0.92055754     0.12400
C1640       C  0.21319821  0.20138880  0.97335367     0.63100
H1641       H  0.19701801  0.24516847  0.94148159     0.12500
C1642       C  0.19090160  0.21740574  0.82280540     0.55200
H1643       H  0.20753608  0.17371164  0.85583116     0.08300
C1644       C  0.20474084  0.13875313  0.92950098    -0.05600
C1645       C  0.21576299  0.11737057  0.94708681    -0.06300
C1646       C  0.24241119  0.11669603  0.95568799    -0.15900
C1647       C  0.25915500  0.13669415  0.94408872    -0.01500
C1648       C  0.24819717  0.15785535  0.92605578    -0.09000
C1649       C  0.17570936  0.13940828  0.92129965     0.65300
H1650       H  0.20345603  0.10152899  0.95578912     0.10700
C1651       C  0.28818638  0.13619541  0.95223001     0.63700
H1652       H  0.26039629  0.17406703  0.91837266     0.08100
F1653       F  0.18997119  0.19377529  0.80552303    -0.19400
F1654       F  0.21016396  0.23214947  0.80715309    -0.15600
F1655       F  0.16686583  0.22923863  0.81824754    -0.19100
F1656       F  0.23971110  0.19752085  0.97785725    -0.22500
F1657       F  0.19989403  0.18011861  0.98617793    -0.24000
F1658       F  0.20609106  0.22267738  0.99333822    -0.18000
F1659       F  0.30134043  0.15591122  0.93510355    -0.20400
F1660       F  0.29877262  0.11282564  0.94154885    -0.21600
F1661       F  0.29215341  0.13914500  0.98801763    -0.18800
F1662       F  0.16319946  0.11721506  0.93281120    -0.18900
F1663       F  0.17200794  0.14132962  0.88533725    -0.22700
F1664       F  0.16418504  0.16049686  0.93746690    -0.24300
C1665       C  0.13587728  0.18571962  0.44848020    -0.11100
C1666       C  0.15037185  0.20288773  0.42771637     0.11500
C1667       C  0.14139859  0.22854254  0.42231775    -0.02900
C1668       C  0.11977167  0.23714013  0.44159014    -0.05700
C1669       C  0.10704630  0.22078955  0.46545929    -0.16400
C1670       C  0.11413507  0.19432286  0.46766876     0.02500
C1671       C  0.17686614  0.19493096  0.41682806     0.12400
C1672       C  0.15515620  0.24690645  0.39726568     0.63100
H1673       H  0.11349527  0.25715816  0.43967225     0.12500
C1674       C  0.09897361  0.17544149  0.49031059     0.55200
H1675       H  0.14283560  0.16600024  0.45143892     0.08300
C1676       C  0.19837577  0.19862540  0.43966906    -0.05600
C1677       C  0.22342645  0.19319393  0.42718149    -0.06300
C1678       C  0.22782366  0.18373982  0.39293119    -0.15900
C1679       C  0.20586125  0.17814176  0.37095403    -0.01500
C1680       C  0.18064825  0.18419459  0.38338682    -0.09000
C1681       C  0.19492143  0.20843282  0.47716715     0.65300
H1682       H  0.23992937  0.19710029  0.44420067     0.10700
C1683       C  0.20853819  0.16548462  0.33503059     0.63700
H1684       H  0.16365235  0.18107028  0.36687943     0.08100
F1685       F  0.10212054  0.18151272  0.52547583    -0.19400
F1686       F  0.10729307  0.15015433  0.48538473    -0.15600
F1687       F  0.07274716  0.17669853  0.48161699    -0.19100
F1688       F  0.15470991  0.23655989  0.36371092    -0.22500
F1689       F  0.18080074  0.25052682  0.40766560    -0.24000
F1690       F  0.14315986  0.27096791  0.39606508    -0.18000
F1691       F  0.18454783  0.15806082  0.32139156    -0.20400
F1692       F  0.22387313  0.14347780  0.33778926    -0.21600
F1693       F  0.21966625  0.18261130  0.31150340    -0.18800
F1694       F  0.21858445  0.21141750  0.49447287    -0.18900
F1695       F  0.18017164  0.19090144  0.49604951    -0.22700
F1696       F  0.18246905  0.23221718  0.47710778    -0.24300
C1697       C  0.28536202  0.35850787  0.43746257    -0.11100
C1698       C  0.26907820  0.33671255  0.43694834     0.11500
C1699       C  0.24426786  0.33767179  0.45319054    -0.02900
C1700       C  0.23623533  0.36110950  0.46856576    -0.05700
C1701       C  0.25252360  0.38297068  0.46906710    -0.16400
C1702       C  0.27761863  0.38169690  0.45373905     0.02500
C1703       C  0.27977949  0.31230338  0.42266845     0.12400
C1704       C  0.22677362  0.31387789  0.45528974     0.63100
H1705       H  0.21741270  0.36240399  0.48133163     0.12500
C1706       C  0.29632317  0.40446946  0.45511385     0.55200
H1707       H  0.30446976  0.35697748  0.42554014     0.08300
C1708       C  0.27682018  0.30519605  0.38707854    -0.05600
C1709       C  0.28552643  0.28052780  0.37656724    -0.06300
C1710       C  0.29783490  0.26322830  0.40029027    -0.15900
C1711       C  0.30283563  0.27172912  0.43544841    -0.01500
C1712       C  0.29348146  0.29617402  0.44584460    -0.09000
C1713       C  0.26525144  0.32391572  0.36029125     0.65300
H1714       H  0.28258633  0.27459582  0.34958348     0.10700
C1715       C  0.31733900  0.25536139  0.46254231     0.63700
H1716       H  0.29615433  0.30279828  0.47261087     0.08100
F1717       F  0.28728588  0.42379013  0.43312918    -0.19400
F1718       F  0.32113695  0.39757051  0.44428427    -0.15600
F1719       F  0.29829965  0.41397106  0.48906841    -0.19100
F1720       F  0.23976199  0.29393074  0.47223999    -0.22500
F1721       F  0.21980786  0.30576348  0.42190917    -0.24000
F1722       F  0.20408631  0.31889519  0.47373673    -0.18000
F1723       F  0.32053325  0.26826281  0.49423038    -0.20400
F1724       F  0.34198785  0.24933160  0.45024995    -0.21600
F1725       F  0.30351992  0.23287739  0.46925176    -0.18800
F1726       F  0.26317382  0.31281840  0.32723019    -0.18900
F1727       F  0.28113367  0.34549256  0.35775305    -0.22700
F1728       F  0.24062078  0.33179298  0.37038660    -0.24300
C1729       C  0.30092546  0.10245463  0.20226136    -0.11100
C1730       C  0.27959131  0.11300742  0.18409780     0.11500
C1731       C  0.26337078  0.13137461  0.20090422    -0.02900
C1732       C  0.27016488  0.13973269  0.23492538    -0.05700
C1733       C  0.29297389  0.13103055  0.25213174    -0.16400
C1734       C  0.30850249  0.11157389  0.23569151     0.02500
C1735       C  0.27545076  0.10511686  0.14693541     0.12400
C1736       C  0.23961291  0.14291214  0.18252111     0.63100
H1737       H  0.25814602  0.15410973  0.24781720     0.12500
C1738       C  0.33367683  0.10126947  0.25188888     0.55200
H1739       H  0.31237853  0.08777393  0.18905609     0.08300
C1740       C  0.29143212  0.11466338  0.11946649    -0.05600
C1741       C  0.28633787  0.10640743  0.08487143    -0.06300
C1742       C  0.26557807  0.08962336  0.07704387    -0.15900
C1743       C  0.24916399  0.08071915  0.10430120    -0.01500
C1744       C  0.25504311  0.08789688  0.13914570    -0.09000
C1745       C  0.31347148  0.13377216  0.12648523     0.65300
H1746       H  0.29841323  0.11314671  0.06345275     0.10700
C1747       C  0.22476277  0.06503894  0.09638852     0.63700
H1748       H  0.24335722  0.08060445  0.16060709     0.08100
F1749       F  0.35088195  0.12148351  0.25788846    -0.19400
F1750       F  0.34603249  0.08361659  0.23013645    -0.15600
F1751       F  0.32833804  0.08876835  0.28317507    -0.19100
F1752       F  0.22176675  0.12364824  0.17474674    -0.22500
F1753       F  0.24713303  0.15494858  0.15169411    -0.24000
F1754       F  0.22713112  0.16112565  0.20326981    -0.18000
F1755       F  0.23136612  0.04136064  0.08196975    -0.20400
F1756       F  0.20914404  0.07851865  0.07286377    -0.21600
F1757       F  0.21030406  0.06045423  0.12642121    -0.18800
F1758       F  0.32509568  0.14201461  0.09563673    -0.18900
F1759       F  0.33255839  0.12230341  0.14707202    -0.22700
F1760       F  0.30389185  0.15538074  0.14367458    -0.24300
C1761       C  0.39971168  0.21917666  0.22512948    -0.11100
C1762       C  0.38448819  0.23026504  0.19843281     0.11500
C1763       C  0.35756282  0.23474580  0.20382554    -0.02900
C1764       C  0.34641136  0.22654401  0.23558146    -0.05700
C1765       C  0.36126027  0.21371297  0.26148093    -0.16400
C1766       C  0.38860902  0.21112595  0.25698581     0.02500
C1767       C  0.39646914  0.23371606  0.16354338     0.12400
C1768       C  0.34041518  0.24678948  0.17541970     0.63100
H1769       H  0.32556573  0.22855097  0.23933981     0.12500
C1770       C  0.40616661  0.20062442  0.28581808     0.55200
H1771       H  0.42025768  0.21587382  0.22019871     0.08300
C1772       C  0.41193768  0.25548838  0.15485420    -0.05600
C1773       C  0.42107021  0.25774608  0.12015172    -0.06300
C1774       C  0.41549676  0.23870897  0.09486309    -0.15900
C1775       C  0.40124809  0.21630201  0.10421415    -0.01500
C1776       C  0.39209429  0.21412962  0.13871121    -0.09000
C1777       C  0.41841752  0.27618984  0.18193609     0.65300
H1778       H  0.43214684  0.27467958  0.11219407     0.10700
C1779       C  0.39559762  0.19496343  0.07773341     0.63700
H1780       H  0.38082764  0.19727495  0.14653250     0.08100
F1781       F  0.40003037  0.21265898  0.31720384    -0.19400
F1782       F  0.43222447  0.20541786  0.27886922    -0.15600
F1783       F  0.40299127  0.17411708  0.28903138    -0.19100
F1784       F  0.33802855  0.22990535  0.14734489    -0.22500
F1785       F  0.35128767  0.26973154  0.16376637    -0.24000
F1786       F  0.31561240  0.25225685  0.18769532    -0.18000
F1787       F  0.38131979  0.17492947  0.09236108    -0.20400
F1788       F  0.41886474  0.18482309  0.06569005    -0.21600
F1789       F  0.38147939  0.20478932  0.04962784    -0.18800
F1790       F  0.43357855  0.29576974  0.16781160    -0.18900
F1791       F  0.43213988  0.26529185  0.20964191    -0.22700
F1792       F  0.39571987  0.28716698  0.19462555    -0.24300
C1793       C  0.43049813  0.19295980  0.46511227    -0.11100
C1794       C  0.44995778  0.20031154  0.44131367     0.11500
C1795       C  0.44535023  0.19742378  0.40479495    -0.02900
C1796       C  0.42060990  0.18893137  0.39333615    -0.05700
C1797       C  0.40031211  0.18314202  0.41692117    -0.16400
C1798       C  0.40577797  0.18412219  0.45370050     0.02500
C1799       C  0.47555843  0.20949070  0.45545184     0.12400
C1800       C  0.46652902  0.20322944  0.37805146     0.63100
H1801       H  0.41698417  0.18673436  0.36543046     0.12500
C1802       C  0.38631709  0.17484494  0.48096614     0.55200
H1803       H  0.43491603  0.19426175  0.49299911     0.08300
C1804       C  0.47943254  0.23518798  0.46774391    -0.05600
C1805       C  0.50433968  0.24233747  0.48040169    -0.06300
C1806       C  0.52525777  0.22476270  0.48079046    -0.15900
C1807       C  0.52134922  0.19911255  0.46860676    -0.01500
C1808       C  0.49634972  0.19179854  0.45669191    -0.09000
C1809       C  0.45740419  0.25491681  0.46748868     0.65300
H1810       H  0.50771575  0.26175561  0.49037362     0.10700
C1811       C  0.54351897  0.17961127  0.46819647     0.63700
H1812       H  0.49280717  0.17211326  0.44787396     0.08100
F1813       F  0.36592417  0.19230430  0.48357375    -0.19400
F1814       F  0.39769064  0.17247437  0.51394481    -0.15600
F1815       F  0.37675680  0.15071209  0.47153645    -0.19100
F1816       F  0.48727668  0.18642118  0.38273566    -0.22500
F1817       F  0.47521607  0.22843434  0.38206761    -0.24000
F1818       F  0.45762383  0.20033709  0.34386054    -0.18000
F1819       F  0.53548434  0.15567583  0.45569474    -0.20400
F1820       F  0.55323649  0.17622440  0.50184653    -0.21600
F1821       F  0.56325511  0.18850966  0.44668379    -0.18800
F1822       F  0.46553369  0.27884544  0.47992780    -0.18900
F1823       F  0.43727116  0.24646358  0.48864743    -0.22700
F1824       F  0.44813813  0.25820357  0.43355385    -0.24300
C1825       C  0.28866148  0.05641496  0.41712676    -0.11100
C1826       C  0.30051669  0.04847221  0.44861034     0.11500
C1827       C  0.31946376  0.06455544  0.46496919    -0.02900
C1828       C  0.32572653  0.08845212  0.44907961    -0.05700
C1829       C  0.31368357  0.09638349  0.41763806    -0.16400
C1830       C  0.29450481  0.08043805  0.40169294     0.02500
C1831       C  0.29273597  0.02297742  0.46337345     0.12400
C1832       C  0.33279323  0.05654547  0.49906765     0.63100
H1833       H  0.34003643  0.10119245  0.46108710     0.12500
C1834       C  0.28001872  0.08898280  0.36877459     0.55200
H1835       H  0.27454592  0.04359660  0.40483439     0.08300
C1836       C  0.26897100  0.01959750  0.48172824    -0.05600
C1837       C  0.26273580  0.99482074  0.49450449    -0.06300
C1838       C  0.27893505  0.97341624  0.48839854    -0.15900
C1839       C  0.30238773  0.97658228  0.46928588    -0.01500
C1840       C  0.30891058  0.00151373  0.45707991    -0.09000
C1841       C  0.25002115  0.04187739  0.48724575     0.65300
H1842       H  0.24481473  0.99177102  0.50890615     0.10700
C1843       C  0.32047455  0.95387260  0.46206670     0.63700
H1844       H  0.32660225  0.00447430  0.44214579     0.08100
F1845       F  0.26882173  0.11307967  0.37406980    -0.19400
F1846       F  0.26032213  0.07184299  0.35963280    -0.15600
F1847       F  0.29728961  0.09040149  0.34112889    -0.19100
F1848       F  0.34708194  0.03414694  0.49382554    -0.22500
F1849       F  0.31429658  0.05206629  0.52471604    -0.24000
F1850       F  0.34966910  0.07550481  0.51132961    -0.18000
F1851       F  0.30808137  0.93610675  0.44050578    -0.20400
F1852       F  0.32737290  0.94195428  0.49336242    -0.21600
F1853       F  0.34315428  0.96166882  0.44546316    -0.18800
F1854       F  0.22903013  0.03463387  0.50783900    -0.18900
F1855       F  0.24032547  0.05013445  0.45514841    -0.22700
F1856       F  0.26254041  0.06229711  0.50373830    -0.24300
loop_ 
_geom_bond_atom_site_label_1 
_geom_bond_atom_site_label_2 
_geom_bond_distance 
_geom_bond_site_symmetry_2 
_ccdc_geom_bond_type 
Fe1          O17   2.079       .  S
Fe1           O7   2.057       .  S
Fe1          O14   2.059       .  S
Fe1           O6   2.077       .  S
Fe1          O12   1.952       .  S
Fe2           O5   2.082       .  S
Fe2           O9   2.069       .  S
Fe2          O13   2.083       .  S
Fe2          O18   2.059       .  S
Fe2          O12   1.957       .  S
Fe3          O21   2.054       .  S
Fe3           O8   2.066       .  S
Fe3          O15   2.071       .  S
Fe3           O4   2.060       .  S
Fe3          O12   1.963       .  S
O4           C11   1.269       .  A
O5           C19   1.275       .  A
O6           C11   1.276       .  A
O7           C10   1.264       .  A
O8           C20   1.268       .  A
O9           C22   1.270       .  A
C10          O15   1.268       .  A
C10        C1710   1.497       .  S
C11        C1678   1.494       .  S
O13          C16   1.272       .  A
O14          C16   1.268       .  A
C16        C1829   1.476       .  S
O17          C22   1.269       .  A
O18          C20   1.264       .  A
C19          O21   1.271       .  A
C19        C1765   1.481       .  S
C20        C1733   1.492       .  S
C22        C1797   1.501       .  S
C23        C1605   1.490       .  S
C23          C24   1.408   1_556  A
C23          C28   1.407       .  A
C24          C25   1.401       .  A
C24          H29   1.083       .  S
C25        C1742   1.478       .  S
C25          C26   1.397       .  A
C26          C27   1.399   1_554  A
C26          H30   1.085       .  S
C27        C1646   1.474       .  S
C27          C28   1.402       .  A
C28          H31   1.081       .  S
C32        C1541   1.472   1_554  S
C32          C33   1.402   1_554  A
C32          C37   1.403       .  A
C33          C34   1.399   1_556  A
C33          H38   1.084       .  S
C34        C1573   1.470   1_554  S
C34          C35   1.398       .  A
C35          C36   1.398       .  A
C35          H39   1.084       .  S
C36        C1774   1.470       .  S
C36          C37   1.400       .  A
C37          H40   1.084       .  S
Fe41         O57   2.065       .  S
Fe41         O47   2.062       .  S
Fe41         O54   2.057       .  S
Fe41         O46   2.068       .  S
Fe41         O52   1.958       .  S
Fe42         O45   2.070       .  S
Fe42         O49   2.055       .  S
Fe42         O53   2.074       .  S
Fe42         O58   2.056       .  S
Fe42         O52   1.955       .  S
Fe43         O61   2.056       .  S
Fe43         O48   2.068       .  S
Fe43         O55   2.077       .  S
Fe43         O44   2.062       .  S
Fe43         O52   1.960       .  S
O44          C51   1.271       .  A
O45          C59   1.273       .  A
O46          C51   1.268       .  A
O47          C50   1.267       .  A
O48          C60   1.265       .  A
O49          C62   1.265       .  A
C50          O55   1.271       .  A
C50        C1381   1.495       .  S
C51        C1413   1.487       .  S
O53          C56   1.271       .  A
O54          C56   1.269       .  A
C56        C1509   1.475       .  S
O57          C62   1.268       .  A
O58          C60   1.267       .  A
C59          O61   1.271       .  A
C59        C1445   1.472       .  S
C60        C1477   1.498       .  S
C62        C1614   1.486       .  S
C63        C1326   1.477       .  S
C63          C64   1.407       .  A
C63          C68   1.403       .  A
C64          C65   1.404       .  A
C64          H69   1.084       .  S
C65        C1358   1.480       .  S
C65          C66   1.401       .  A
C66          C67   1.399       .  A
C66          H70   1.085       .  S
C67        C1486   1.475       .  S
C67          C68   1.399       .  A
C68          H71   1.084       .  S
C72        C1838   1.478       .  S
C72          C73   1.405       .  A
C72          C77   1.405       .  A
C73          C74   1.401       .  A
C73          H78   1.084       .  S
C74        C1454   1.476       .  S
C74          C75   1.398       .  A
C75          C76   1.398       .  A
C75          H79   1.084       .  S
C76        C1285   1.475       .  S
C76          C77   1.401       .  A
C77          H80   1.083       .  S
Fe81         O97   2.073       .  S
Fe81         O87   2.061       .  S
Fe81         O94   2.065       .  S
Fe81         O86   2.078       .  S
Fe81         O92   1.956       .  S
Fe82         O85   2.068       .  S
Fe82         O89   2.063       .  S
Fe82         O93   2.076       .  S
Fe82         O98   2.065       .  S
Fe82         O92   1.960       .  S
Fe83        O101   2.066       .  S
Fe83         O88   2.057       .  S
Fe83         O95   2.065       .  S
Fe83         O84   2.064       .  S
Fe83         O92   1.958       .  S
O84          C91   1.273       .  A
O85          C99   1.273       .  A
O86          C91   1.272       .  A
O87          C90   1.264       .  A
O88         C100   1.267       .  A
O89         C102   1.268       .  A
C90          O95   1.267       .  A
C90        C1166   1.494       .  S
C91        C1125   1.493       .  S
O93          C96   1.272       .  A
O94          C96   1.269       .  A
C96        C1253   1.489       .  S
O97         C102   1.270       .  A
O98         C100   1.267       .  A
C99         O101   1.272       .  A
C99        C1221   1.486       .  S
C100       C1189   1.494       .  S
C102       C1317   1.486       .  S
C103       C1061   1.478       .  S
C103        C104   1.402   1_556  A
C103        C108   1.406       .  A
C104        C105   1.399       .  A
C104        H109   1.085       .  S
C105       C1198   1.474       .  S
C105        C106   1.400       .  A
C106        C107   1.402   1_554  A
C106        H110   1.085       .  S
C107       C1102   1.484       .  S
C107        C108   1.406       .  A
C108        H111   1.085       .  S
C112       C1518   1.477   1_554  S
C112        C113   1.407   1_554  A
C112        C117   1.401       .  A
C113        C114   1.407       .  A
C113        H118   1.083       .  S
C114       C1029   1.485       .  S
C114        C115   1.401   1_556  A
C115        C116   1.399       .  A
C115        H119   1.085       .  S
C116       C1230   1.472       .  S
C116        C117   1.398       .  A
C117        H120   1.084       .  S
Fe121       O137   2.065       .  S
Fe121       O127   2.054       .  S
Fe121       O134   2.055       .  S
Fe121       O126   2.077       .  S
Fe121       O132   1.969       .  S
Fe122       O125   2.067       .  S
Fe122       O129   2.070       .  S
Fe122       O133   2.067       .  S
Fe122       O138   2.071       .  S
Fe122       O132   1.972       .  S
Fe123       O141   2.069       .  S
Fe123       O128   2.054       .  S
Fe123       O135   2.064       .  S
Fe123       O124   2.066       .  S
Fe123       O132   1.964       .  S
O124        C131   1.272       .  A
O125        C139   1.272       .  A
O126        C131   1.270       .  A
O127        C130   1.263       .  A
O128        C140   1.264       .  A
O129        C142   1.271       .  A
C130        O135   1.267       .  A
C130        C901   1.486       .  S
C131        C933   1.500       .  S
O133        C136   1.268       .  A
O134        C136   1.267       .  A
C136       C1550   1.471       .  S
O137        C142   1.267       .  A
O138        C140   1.270       .  A
C139        O141   1.270       .  A
C139        C974   1.500       .  S
C140        C997   1.489       .  S
C142       C1070   1.495       .  S
C143       C1806   1.484       .  S
C143        C144   1.404       .  A
C143        C148   1.409       .  A
C144        C145   1.401       .  A
C144        H149   1.084       .  S
C145       C1006   1.479       .  S
C145        C146   1.400       .  A
C146        C147   1.402       .  A
C146        H150   1.085       .  S
C147        C878   1.489       .  S
C147        C148   1.409       .  A
C148        H151   1.082       .  S
C152       C1262   1.484       .  S
C152        C153   1.407       .  A
C152        C157   1.406       .  A
C153        C154   1.404       .  A
C153        H158   1.083       .  S
C154        C837   1.479       .  S
C154        C155   1.399       .  A
C155        C156   1.400       .  A
C155        H159   1.085       .  S
C156        C965   1.479       .  S
C156        C157   1.404       .  A
C157        H160   1.084       .  S
Fe161       O177   2.054       .  S
Fe161       O167   2.078       .  S
Fe161       O174   2.074       .  S
Fe161       O166   2.052       .  S
Fe161       O172   1.963       .  S
Fe162       O165   2.058       .  S
Fe162       O169   2.071       .  S
Fe162       O173   2.056       .  S
Fe162       O178   2.072       .  S
Fe162       O172   1.965       .  S
Fe163       O181   2.083       .  S
Fe163       O168   2.078       .  S
Fe163       O175   2.076       .  S
Fe163       O164   2.083       .  S
Fe163       O172   1.962       .  S
O164        C171   1.273       .  A
O165        C179   1.269       .  A
O166        C171   1.264       .  A
O167        C170   1.271       .  A
O168        C180   1.271       .  A
O169        C182   1.270       .  A
C170        O175   1.274       .  A
C170        C869   1.500       .  S
C171        C846   1.491       .  S
O173        C176   1.266       .  A
O174        C176   1.270       .  A
C176        C814   1.485       .  S
O177        C182   1.266       .  A
O178        C180   1.272       .  A
C179        O181   1.270       .  A
C179        C741   1.503       .  S
C180        C709   1.502       .  S
C182        C773   1.481       .  S
C183        C686   1.480       .  S
C183        C184   1.406       .  A
C183        C188   1.405   1_556  A
C184        C185   1.404       .  A
C184        H189   1.083       .  S
C185        C910   1.477       .  S
C185        C186   1.400   1_556  A
C186        C187   1.399       .  A
C186        H190   1.084       .  S
C187        C718   1.476       .  S
C187        C188   1.401       .  A
C188        H191   1.084       .  S
C192        C645   1.485   1_554  S
C192        C193   1.409       .  A
C192        C197   1.407   1_554  A
C193        C194   1.408       .  A
C193        H198   1.083       .  S
C194        C750   1.488       .  S
C194        C195   1.402       .  A
C195        C196   1.400   1_554  A
C195        H199   1.085       .  S
C196        C942   1.481       .  S
C196        C197   1.403       .  A
C197        H200   1.083       .  S
Fe201       O217   2.063       .  S
Fe201       O207   2.074       .  S
Fe201       O214   2.082       .  S
Fe201       O206   2.062       .  S
Fe201       O212   1.956       .  S
Fe202       O205   2.050       .  S
Fe202       O209   2.082       .  S
Fe202       O213   2.050       .  S
Fe202       O218   2.073       .  S
Fe202       O212   1.956       .  S
Fe203       O221   2.079       .  S
Fe203       O208   2.057       .  S
Fe203       O215   2.056       .  S
Fe203       O204   2.075       .  S
Fe203       O212   1.957       .  S
O204        C211   1.268       .  A
O205        C219   1.265       .  A
O206        C211   1.269       .  A
O207        C210   1.274       .  A
O208        C220   1.267       .  A
O209        C222   1.270       .  A
C210        O215   1.266       .  A
C210       C1637   1.497       .  S
C211       C1582   1.497       .  S
O213        C216   1.266       .  A
O214        C216   1.272       .  A
C216        C622   1.482       .  S
O217        C222   1.270       .  A
O218        C220   1.272       .  A
C219        O221   1.272       .  A
C219        C549   1.483       .  S
C220        C581   1.486       .  S
C222        C677   1.496       .  S
C223        C517   1.479       .  S
C223        C224   1.405       .  A
C223        C228   1.404       .  A
C224        C225   1.404       .  A
C224        H229   1.082       .  S
C225       C1701   1.476       .  S
C225        C226   1.401       .  A
C226        C227   1.397       .  A
C226        H230   1.084       .  S
C227        C590   1.472       .  S
C227        C228   1.396       .  A
C228        H231   1.085       .  S
C232        C805   1.474       .  S
C232        C233   1.401       .  A
C232        C237   1.401       .  A
C233        C234   1.399       .  A
C233        H238   1.085       .  S
C234       C1669   1.475       .  S
C234        C235   1.402       .  A
C235        C236   1.401       .  A
C235        H239   1.082       .  S
C236        C558   1.483       .  S
C236        C237   1.403       .  A
C237        H240   1.083       .  S
Fe241       O257   2.076       .  S
Fe241       O247   2.064       .  S
Fe241       O254   2.060       .  S
Fe241       O246   2.083       .  S
Fe241       O252   1.954       .  S
Fe242       O245   2.072       .  S
Fe242       O249   2.055       .  S
Fe242       O253   2.078       .  S
Fe242       O258   2.065       .  S
Fe242       O252   1.957       .  S
Fe243       O261   2.054       .  S
Fe243       O248   2.073       .  S
Fe243       O255   2.082       .  S
Fe243       O244   2.052       .  S
Fe243       O252   1.957       .  S
O244        C251   1.270       .  A
O245        C259   1.272       .  A
O246        C251   1.273       .  A
O247        C250   1.266       .  A
O248        C260   1.271       .  A
O249        C262   1.266       .  A
C250        O255   1.271       .  A
C250       C1349   1.494       .  S
C251       C1294   1.486       .  S
O253        C256   1.269       .  A
O254        C256   1.270       .  A
C256        C494   1.502       .  S
O257        C262   1.273       .  A
O258        C260   1.267       .  A
C259        O261   1.270       .  A
C259        C453   1.474       .  S
C260        C430   1.501       .  S
C262        C526   1.489       .  S
C263        C389   1.483   1_554  S
C263        C264   1.409   1_554  A
C263        C268   1.404       .  A
C264        C265   1.406       .  A
C264        H269   1.083       .  S
C265       C1390   1.483       .  S
C265        C266   1.402   1_556  A
C266        C267   1.400       .  A
C266        H270   1.085       .  S
C267        C421   1.479       .  S
C267        C268   1.402       .  A
C268        H271   1.084       .  S
C272        C613   1.475   1_554  S
C272        C273   1.408   1_554  A
C272        C277   1.400       .  A
C273        C274   1.406       .  A
C273        H278   1.083       .  S
C274       C1422   1.476       .  S
C274        C275   1.398   1_556  A
C275        C276   1.397       .  A
C275        H279   1.085       .  S
C276        C462   1.466       .  S
C276        C277   1.397       .  A
C277        H280   1.084       .  S
Fe281       O297   2.069       .  S
Fe281       O287   2.054       .  S
Fe281       O294   2.072       .  S
Fe281       O286   2.060       .  S
Fe281       O292   1.971       .  S
Fe282       O285   2.060       .  S
Fe282       O289   2.080       .  S
Fe282       O293   2.071       .  S
Fe282       O298   2.068       .  S
Fe282       O292   1.973       .  S
Fe283       O301   2.073       .  S
Fe283       O288   2.081       .  S
Fe283       O295   2.078       .  S
Fe283       O284   2.084       .  S
Fe283       O292   1.975       .  S
O284        C291   1.272       .  A
O285        C299   1.268       .  A
O286        C291   1.271       .  A
O287        C290   1.267       .  A
O288        C300   1.273       .  A
O289        C302   1.268       .  A
C290        O295   1.273       .  A
C290       C1093   1.488       .  S
C291       C1038   1.504       .  S
O293        C296   1.271       .  A
O294        C296   1.269       .  A
C296        C654   1.485       .  S
O297        C302   1.268       .  A
O298        C300   1.268       .  A
C299        O301   1.273       .  A
C299        C325   1.490       .  S
C300        C357   1.488       .  S
C302        C398   1.499       .  S
C303        C782   1.475       .  S
C303        C304   1.405       .  A
C303        C308   1.405       .  A
C304        C305   1.400       .  A
C304        H309   1.084       .  S
C305        C366   1.479       .  S
C305        C306   1.400       .  A
C306        C307   1.401       .  A
C306        H310   1.084       .  S
C307       C1157   1.480       .  S
C307        C308   1.403       .  A
C308        H311   1.084       .  S
C312        C485   1.493       .  S
C312        C313   1.411       .  A
C312        C317   1.408       .  A
C313        C314   1.404       .  A
C313        H318   1.084       .  S
C314       C1134   1.477       .  S
C314        C315   1.398       .  A
C315        C316   1.399       .  A
C315        H319   1.083       .  S
C316        C334   1.483       .  S
C316        C317   1.403       .  A
C317        H320   1.082       .  S
C321        C322   1.398       .  A
C321        C326   1.405       .  A
C321        H331   1.083       .  S
C322        C327   1.479       .  S
C322        C323   1.413       .  A
C323        C324   1.406       .  A
C323        C328   1.520       .  S
C324        C325   1.408       .  A
C324        H329   1.083       .  S
C325        C326   1.426       .  A
C326        C330   1.521       .  S
C327        C332   1.413       .  A
C327        C336   1.399       .  A
C328        F344   1.382       .  S
C328        F345   1.381       .  S
C328        F346   1.384       .  S
C330        F341   1.381       .  S
C330        F342   1.385       .  S
C330        F343   1.383       .  S
C332        C333   1.408       .  A
C332        C337   1.518       .  S
C333        C334   1.406       .  A
C333        H338   1.084       .  S
C334        C335   1.422       .  A
C335        C336   1.402       .  A
C335        C339   1.523       .  S
C336        H340   1.084       .  S
C337        F350   1.384       .  S
C337        F351   1.383       .  S
C337        F352   1.381       .  S
C339        F347   1.385       .  S
C339        F348   1.383       .  S
C339        F349   1.381       .  S
C353        C354   1.401       .  A
C353        C358   1.411       .  A
C353        H363   1.083       .  S
C354        C359   1.487       .  S
C354        C355   1.417       .  A
C355        C356   1.409       .  A
C355        C360   1.522       .  S
C356        C357   1.406       .  A
C356        H361   1.083       .  S
C357        C358   1.420       .  A
C358        C362   1.516       .  S
C359        C364   1.417       .  A
C359        C368   1.403       .  A
C360        F376   1.382       .  S
C360        F377   1.382       .  S
C360        F378   1.384       .  S
C362        F373   1.382       .  S
C362        F374   1.385       .  S
C362        F375   1.383       .  S
C364        C365   1.408       .  A
C364        C369   1.518       .  S
C365        C366   1.402       .  A
C365        H370   1.083       .  S
C366        C367   1.415       .  A
C367        C368   1.407       .  A
C367        C371   1.518       .  S
C368        H372   1.083       .  S
C369        F382   1.385       .  S
C369        F383   1.383       .  S
C369        F384   1.382       .  S
C371        F379   1.384       .  S
C371        F380   1.384       .  S
C371        F381   1.381       .  S
C385        C386   1.405       .  A
C385        C390   1.409       .  A
C385        H395   1.082       .  S
C386        C391   1.492       .  S
C386        C387   1.419       .  A
C387        C388   1.409   1_655  A
C387        C392   1.519       .  S
C388        C389   1.402       .  A
C388        H393   1.083       .  S
C389        C390   1.414   1_455  A
C390        C394   1.517   1_556  S
C391        C396   1.416       .  A
C391        C400   1.400       .  A
C392        F408   1.381       .  S
C392        F409   1.382       .  S
C392        F410   1.385   1_655  S
C394        F405   1.383   1_655  S
C394        F406   1.384   1_554  S
C394        F407   1.382   1_654  S
C396        C397   1.412       .  A
C396        C401   1.519   1_556  S
C397        C398   1.409       .  A
C397        H402   1.083       .  S
C398        C399   1.425       .  A
C399        C400   1.408       .  A
C399        C403   1.518       .  S
C400        H404   1.083       .  S
C401        F414   1.384       .  S
C401        F415   1.382       .  S
C401        F416   1.382       .  S
C403        F411   1.385       .  S
C403        F412   1.382       .  S
C403        F413   1.383       .  S
C417        C418   1.403       .  A
C417        C422   1.408       .  A
C417        H427   1.084       .  S
C418        C423   1.484       .  S
C418        C419   1.417       .  A
C419        C420   1.405       .  A
C419        C424   1.520       .  S
C420        C421   1.401       .  A
C420        H425   1.085       .  S
C421        C422   1.416       .  A
C422        C426   1.518       .  S
C423        C428   1.411       .  A
C423        C432   1.400       .  A
C424        F440   1.382       .  S
C424        F441   1.382       .  S
C424        F442   1.384       .  S
C426        F437   1.382       .  S
C426        F438   1.385       .  S
C426        F439   1.383       .  S
C428        C429   1.404       .  A
C428        C433   1.521       .  S
C429        C430   1.412       .  A
C429        H434   1.080       .  S
C430        C431   1.427       .  A
C431        C432   1.410       .  A
C431        C435   1.518       .  S
C432        H436   1.081       .  S
C433        F446   1.384       .  S
C433        F447   1.382       .  S
C433        F448   1.382       .  S
C435        F443   1.385       .  S
C435        F444   1.384       .  S
C435        F445   1.382       .  S
C449        C450   1.398       .  A
C449        C454   1.401       .  A
C449        H459   1.083       .  S
C450        C455   1.474       .  S
C450        C451   1.415       .  A
C451        C452   1.403       .  A
C451        C456   1.520       .  S
C452        C453   1.404       .  A
C452        H457   1.082       .  S
C453        C454   1.416       .  A
C454        C458   1.513       .  S
C455        C460   1.413       .  A
C455        C464   1.401       .  A
C456        F472   1.382       .  S
C456        F473   1.382       .  S
C456        F474   1.384       .  S
C458        F469   1.385       .  S
C458        F470   1.381       .  S
C458        F471   1.384       .  S
C460        C461   1.404       .  A
C460        C465   1.519       .  S
C461        C462   1.402       .  A
C461        H466   1.082       .  S
C462        C463   1.417       .  A
C463        C464   1.400       .  A
C463        C467   1.520       .  S
C464        H468   1.083       .  S
C465        F478   1.384       .  S
C465        F479   1.382       .  S
C465        F480   1.383       .  S
C467        F475   1.384       .  S
C467        F476   1.381       .  S
C467        F477   1.383       .  S
C481        C482   1.399       .  A
C481        C486   1.406   1_455  A
C481        H491   1.084       .  S
C482        C487   1.481       .  S
C482        C483   1.415       .  A
C483        C484   1.406   1_455  A
C483        C488   1.521       .  S
C484        C485   1.407       .  A
C484        H489   1.081       .  S
C485        C486   1.426       .  A
C486        C490   1.520       .  S
C487        C492   1.410       .  A
C487        C496   1.396       .  A
C488        F504   1.383       .  S
C488        F505   1.381       .  S
C488        F506   1.384       .  S
C490        F501   1.383       .  S
C490        F502   1.385       .  S
C490        F503   1.381       .  S
C492        C493   1.407       .  A
C492        C497   1.519       .  S
C493        C494   1.414       .  A
C493        H498   1.080       .  S
C494        C495   1.430       .  A
C495        C496   1.406       .  A
C495        C499   1.519       .  S
C496        H500   1.082       .  S
C497        F510   1.385       .  S
C497        F511   1.383       .  S
C497        F512   1.381       .  S
C499        F507   1.382       .  S
C499        F508   1.379       .  S
C499        F509   1.385       .  S
C513        C514   1.401       .  A
C513        C518   1.403       .  A
C513        H523   1.083       .  S
C514        C519   1.477       .  S
C514        C515   1.414       .  A
C515        C516   1.403       .  A
C515        C520   1.519       .  S
C516        C517   1.405       .  A
C516        H521   1.083       .  S
C517        C518   1.418       .  A
C518        C522   1.517       .  S
C519        C524   1.416       .  A
C519        C528   1.399       .  A
C520        F536   1.381       .  S
C520        F537   1.383       .  S
C520        F538   1.385       .  S
C522        F533   1.385       .  S
C522        F534   1.380       .  S
C522        F535   1.383       .  S
C524        C525   1.402       .  A
C524        C529   1.521       .  S
C525        C526   1.406       .  A
C525        H530   1.084       .  S
C526        C527   1.424       .  A
C527        C528   1.405       .  A
C527        C531   1.518       .  S
C528        H532   1.082       .  S
C529        F542   1.383       .  S
C529        F543   1.383       .  S
C529        F544   1.382       .  S
C531        F539   1.378       .  S
C531        F540   1.381       .  S
C531        F541   1.385       .  S
C545        C546   1.399       .  A
C545        C550   1.406       .  A
C545        H555   1.081       .  S
C546        C551   1.480       .  S
C546        C547   1.414       .  A
C547        C548   1.405       .  A
C547        C552   1.520       .  S
C548        C549   1.406       .  A
C548        H553   1.081       .  S
C549        C550   1.424       .  A
C550        C554   1.522       .  S
C551        C556   1.413       .  A
C551        C560   1.400       .  A
C552        F568   1.382       .  S
C552        F569   1.381       .  S
C552        F570   1.384       .  S
C554        F565   1.382       .  S
C554        F566   1.385       .  S
C554        F567   1.383       .  S
C556        C557   1.406       .  A
C556        C561   1.519       .  S
C557        C558   1.405       .  A
C557        H562   1.084       .  S
C558        C559   1.421       .  A
C559        C560   1.404       .  A
C559        C563   1.523       .  S
C560        H564   1.085       .  S
C561        F574   1.384       .  S
C561        F575   1.383       .  S
C561        F576   1.381       .  S
C563        F571   1.385       .  S
C563        F572   1.383       .  S
C563        F573   1.380       .  S
C577        C578   1.399       .  A
C577        C582   1.404       .  A
C577        H587   1.084       .  S
C578        C583   1.478       .  S
C578        C579   1.412       .  A
C579        C580   1.404       .  A
C579        C584   1.519       .  S
C580        C581   1.408       .  A
C580        H585   1.082       .  S
C581        C582   1.425       .  A
C582        C586   1.522       .  S
C583        C588   1.416       .  A
C583        C592   1.402       .  A
C584        F600   1.382       .  S
C584        F601   1.381       .  S
C584        F602   1.385       .  S
C586        F597   1.380       .  S
C586        F598   1.385       .  S
C586        F599   1.383       .  S
C588        C589   1.407       .  A
C588        C593   1.519       .  S
C589        C590   1.402       .  A
C589        H594   1.082       .  S
C590        C591   1.413       .  A
C591        C592   1.402       .  A
C591        C595   1.519       .  S
C592        H596   1.083       .  S
C593        F606   1.384       .  S
C593        F607   1.382       .  S
C593        F608   1.381       .  S
C595        F603   1.385       .  S
C595        F604   1.383       .  S
C595        F605   1.383       .  S
C609        C610   1.401       .  A
C609        C614   1.404       .  A
C609        H619   1.085       .  S
C610        C615   1.481       .  S
C610        C611   1.417       .  A
C611        C612   1.407       .  A
C611        C616   1.520       .  S
C612        C613   1.401       .  A
C612        H617   1.085   1_556  S
C613        C614   1.415       .  A
C614        C618   1.517       .  S
C615        C620   1.415       .  A
C615        C624   1.399       .  A
C616        F632   1.382       .  S
C616        F633   1.382   1_556  S
C616        F634   1.384   1_556  S
C618        F629   1.382   1_556  S
C618        F630   1.384       .  S
C618        F631   1.382       .  S
C620        C621   1.409       .  A
C620        C625   1.519   1_556  S
C621        C622   1.406       .  A
C621        H626   1.081       .  S
C622        C623   1.422       .  A
C623        C624   1.404       .  A
C623        C627   1.520       .  S
C624        H628   1.082       .  S
C625        F638   1.385       .  S
C625        F639   1.382   1_554  S
C625        F640   1.381       .  S
C627        F635   1.382       .  S
C627        F636   1.384       .  S
C627        F637   1.385       .  S
C641        C642   1.403       .  A
C641        C646   1.409       .  A
C641        H651   1.084       .  S
C642        C647   1.491       .  S
C642        C643   1.418       .  A
C643        C644   1.410       .  A
C643        C648   1.519       .  S
C644        C645   1.403       .  A
C644        H649   1.084       .  S
C645        C646   1.416       .  A
C646        C650   1.516   1_556  S
C647        C652   1.417       .  A
C647        C656   1.403       .  A
C648        F664   1.382       .  S
C648        F665   1.382       .  S
C648        F666   1.384       .  S
C650        F661   1.383   1_554  S
C650        F662   1.385   1_554  S
C650        F663   1.382       .  S
C652        C653   1.409       .  A
C652        C657   1.519       .  S
C653        C654   1.404       .  A
C653        H658   1.081       .  S
C654        C655   1.419       .  A
C655        C656   1.410       .  A
C655        C659   1.519       .  S
C656        H660   1.083       .  S
C657        F670   1.385       .  S
C657        F671   1.382       .  S
C657        F672   1.382       .  S
C659        F667   1.382       .  S
C659        F668   1.384       .  S
C659        F669   1.384   1_556  S
C673        C674   1.399       .  A
C673        C678   1.408       .  A
C673        H683   1.081       .  S
C674        C679   1.486       .  S
C674        C675   1.414       .  A
C675        C676   1.408       .  A
C675        C680   1.520   1_556  S
C676        C677   1.409       .  A
C676        H681   1.080       .  S
C677        C678   1.426       .  A
C678        C682   1.519       .  S
C679        C684   1.416       .  A
C679        C688   1.403       .  A
C680        F696   1.382       .  S
C680        F697   1.382       .  S
C680        F698   1.384       .  S
C682        F693   1.383       .  S
C682        F694   1.385       .  S
C682        F695   1.381       .  S
C684        C685   1.407   1_455  A
C684        C689   1.519       .  S
C685        C686   1.403       .  A
C685        H690   1.084       .  S
C686        C687   1.415       .  A
C687        C688   1.407   1_655  A
C687        C691   1.517       .  S
C688        H692   1.084       .  S
C689        F702   1.384   1_455  S
C689        F703   1.382       .  S
C689        F704   1.382       .  S
C691        F699   1.382       .  S
C691        F700   1.383   1_556  S
C691        F701   1.384   1_655  S
C705        C706   1.402       .  A
C705        C710   1.411       .  A
C705        H715   1.083       .  S
C706        C711   1.488       .  S
C706        C707   1.414       .  A
C707        C708   1.404       .  A
C707        C712   1.519       .  S
C708        C709   1.411       .  A
C708        H713   1.084       .  S
C709        C710   1.426       .  A
C710        C714   1.519       .  S
C711        C716   1.418       .  A
C711        C720   1.404       .  A
C712        F728   1.383       .  S
C712        F729   1.383       .  S
C712        F730   1.384       .  S
C714        F725   1.383       .  S
C714        F726   1.385       .  S
C714        F727   1.383       .  S
C716        C717   1.410       .  A
C716        C721   1.517       .  S
C717        C718   1.403       .  A
C717        H722   1.084       .  S
C718        C719   1.413       .  A
C719        C720   1.403       .  A
C719        C723   1.518       .  S
C720        H724   1.084       .  S
C721        F734   1.385       .  S
C721        F735   1.381       .  S
C721        F736   1.383       .  S
C723        F731   1.383       .  S
C723        F732   1.383       .  S
C723        F733   1.384       .  S
C737        C738   1.400       .  A
C737        C742   1.411       .  A
C737        H747   1.083       .  S
C738        C743   1.488       .  S
C738        C739   1.411       .  A
C739        C740   1.407       .  A
C739        C744   1.520       .  S
C740        C741   1.413       .  A
C740        H745   1.081       .  S
C741        C742   1.429       .  A
C742        C746   1.521       .  S
C743        C748   1.416       .  A
C743        C752   1.404       .  A
C744        F760   1.382       .  S
C744        F761   1.382       .  S
C744        F762   1.385       .  S
C746        F757   1.383       .  S
C746        F758   1.385       .  S
C746        F759   1.384       .  S
C748        C749   1.406       .  A
C748        C753   1.521       .  S
C749        C750   1.405       .  A
C749        H754   1.082       .  S
C750        C751   1.418       .  A
C751        C752   1.412       .  A
C751        C755   1.517       .  S
C752        H756   1.082       .  S
C753        F766   1.384       .  S
C753        F767   1.383       .  S
C753        F768   1.382       .  S
C755        F763   1.384       .  S
C755        F764   1.383       .  S
C755        F765   1.381       .  S
C769        C770   1.401       .  A
C769        C774   1.406       .  A
C769        H779   1.083       .  S
C770        C775   1.481       .  S
C770        C771   1.414       .  A
C771        C772   1.405       .  A
C771        C776   1.520       .  S
C772        C773   1.406       .  A
C772        H777   1.083       .  S
C773        C774   1.420       .  A
C774        C778   1.520       .  S
C775        C780   1.417       .  A
C775        C784   1.401       .  A
C776        F792   1.382       .  S
C776        F793   1.382       .  S
C776        F794   1.385       .  S
C778        F789   1.382       .  S
C778        F790   1.385       .  S
C778        F791   1.384       .  S
C780        C781   1.407       .  A
C780        C785   1.520       .  S
C781        C782   1.402       .  A
C781        H786   1.085       .  S
C782        C783   1.414       .  A
C783        C784   1.404       .  A
C783        C787   1.517       .  S
C784        H788   1.084       .  S
C785        F798   1.385       .  S
C785        F799   1.382       .  S
C785        F800   1.382       .  S
C787        F795   1.384       .  S
C787        F796   1.383       .  S
C787        F797   1.383       .  S
C801        C802   1.402   1_455  A
C801        C806   1.406       .  A
C801        H811   1.084   1_455  S
C802        C807   1.480       .  S
C802        C803   1.417       .  A
C803        C804   1.404   1_655  A
C803        C808   1.521       .  S
C804        C805   1.400       .  A
C804        H809   1.084       .  S
C805        C806   1.416       .  A
C806        C810   1.519       .  S
C807        C812   1.413       .  A
C807        C816   1.398       .  A
C808        F824   1.382       .  S
C808        F825   1.382       .  S
C808        F826   1.384       .  S
C810        F821   1.382       .  S
C810        F822   1.384       .  S
C810        F823   1.383       .  S
C812        C813   1.407       .  A
C812        C817   1.519       .  S
C813        C814   1.407       .  A
C813        H818   1.083       .  S
C814        C815   1.423       .  A
C815        C816   1.405       .  A
C815        C819   1.520       .  S
C816        H820   1.083       .  S
C817        F830   1.384       .  S
C817        F831   1.382       .  S
C817        F832   1.383       .  S
C819        F827   1.381       .  S
C819        F828   1.384       .  S
C819        F829   1.385       .  S
C833        C834   1.403       .  A
C833        C838   1.404       .  A
C833        H843   1.084       .  S
C834        C839   1.482       .  S
C834        C835   1.419       .  A
C835        C836   1.407       .  A
C835        C840   1.519       .  S
C836        C837   1.402       .  A
C836        H841   1.085       .  S
C837        C838   1.414       .  A
C838        C842   1.518       .  S
C839        C844   1.412       .  A
C839        C848   1.397       .  A
C840        F856   1.384       .  S
C840        F857   1.382       .  S
C840        F858   1.383       .  S
C842        F853   1.382       .  S
C842        F854   1.385       .  S
C842        F855   1.383       .  S
C844        C845   1.408       .  A
C844        C849   1.516       .  S
C845        C846   1.409       .  A
C845        H850   1.083       .  S
C846        C847   1.428       .  A
C847        C848   1.406       .  A
C847        C851   1.523       .  S
C848        H852   1.083       .  S
C849        F862   1.385       .  S
C849        F863   1.383       .  S
C849        F864   1.383       .  S
C851        F859   1.385       .  S
C851        F860   1.383       .  S
C851        F861   1.383       .  S
C865        C866   1.401       .  A
C865        C870   1.411       .  A
C865        H875   1.083       .  S
C866        C871   1.491       .  S
C866        C867   1.413       .  A
C867        C868   1.409       .  A
C867        C872   1.518       .  S
C868        C869   1.410       .  A
C868        H873   1.082       .  S
C869        C870   1.427       .  A
C870        C874   1.520       .  S
C871        C876   1.418       .  A
C871        C880   1.403       .  A
C872        F888   1.383       .  S
C872        F889   1.382       .  S
C872        F890   1.384       .  S
C874        F885   1.385       .  S
C874        F886   1.384       .  S
C874        F887   1.382       .  S
C876        C877   1.408       .  A
C876        C881   1.521       .  S
C877        C878   1.405       .  A
C877        H882   1.082       .  S
C878        C879   1.418       .  A
C879        C880   1.412       .  A
C879        C883   1.518       .  S
C880        H884   1.082       .  S
C881        F894   1.384       .  S
C881        F895   1.383       .  S
C881        F896   1.382       .  S
C883        F891   1.384       .  S
C883        F892   1.384       .  S
C883        F893   1.381       .  S
C897        C898   1.399       .  A
C897        C902   1.405       .  A
C897        H907   1.082       .  S
C898        C903   1.480       .  S
C898        C899   1.412       .  A
C899        C900   1.406       .  A
C899        C904   1.518       .  S
C900        C901   1.409       .  A
C900        H905   1.082       .  S
C901        C902   1.425       .  A
C902        C906   1.522       .  S
C903        C908   1.418       .  A
C903        C912   1.401       .  A
C904        F920   1.382       .  S
C904        F921   1.382       .  S
C904        F922   1.385       .  S
C906        F917   1.385   1_556  S
C906        F918   1.383       .  S
C906        F919   1.383       .  S
C908        C909   1.407       .  A
C908        C913   1.522       .  S
C909        C910   1.402       .  A
C909        H914   1.084       .  S
C910        C911   1.415       .  A
C911        C912   1.406       .  A
C911        C915   1.517       .  S
C912        H916   1.084       .  S
C913        F926   1.384       .  S
C913        F927   1.382       .  S
C913        F928   1.382       .  S
C915        F923   1.384       .  S
C915        F924   1.383   1_556  S
C915        F925   1.382       .  S
C929        C930   1.401       .  A
C929        C934   1.409       .  A
C929        H939   1.085       .  S
C930        C935   1.488       .  S
C930        C931   1.414       .  A
C931        C932   1.407       .  A
C931        C936   1.520       .  S
C932        C933   1.411       .  A
C932        H937   1.083       .  S
C933        C934   1.427       .  A
C934        C938   1.521       .  S
C935        C940   1.418       .  A
C935        C944   1.402       .  A
C936        F952   1.381       .  S
C936        F953   1.382       .  S
C936        F954   1.385       .  S
C938        F949   1.384       .  S
C938        F950   1.385       .  S
C938        F951   1.383       .  S
C940        C941   1.412       .  A
C940        C945   1.518       .  S
C941        C942   1.404       .  A
C941        H946   1.083       .  S
C942        C943   1.415       .  A
C943        C944   1.404       .  A
C943        C947   1.519       .  S
C944        H948   1.083       .  S
C945        F958   1.385       .  S
C945        F959   1.381       .  S
C945        F960   1.382       .  S
C947        F955   1.381   1_556  S
C947        F956   1.383       .  S
C947        F957   1.385       .  S
C961        C962   1.404       .  A
C961        C966   1.410       .  A
C961        H971   1.082       .  S
C962        C967   1.482       .  S
C962        C963   1.417       .  A
C963        C964   1.403       .  A
C963        C968   1.521       .  S
C964        C965   1.401       .  A
C964        H969   1.082       .  S
C965        C966   1.416       .  A
C966        C970   1.517       .  S
C967        C972   1.410       .  A
C967        C976   1.399       .  A
C968        F984   1.382       .  S
C968        F985   1.381       .  S
C968        F986   1.385       .  S
C970        F981   1.385       .  S
C970        F982   1.383       .  S
C970        F983   1.382       .  S
C972        C973   1.405       .  A
C972        C977   1.521       .  S
C973        C974   1.413       .  A
C973        H978   1.082       .  S
C974        C975   1.429       .  A
C975        C976   1.410       .  A
C975        C979   1.522       .  S
C976        H980   1.083       .  S
C977        F990   1.384       .  S
C977        F991   1.382       .  S
C977        F992   1.382       .  S
C979        F987   1.383       .  S
C979        F988   1.382       .  S
C979        F989   1.385       .  S
C993        C994   1.397       .  A
C993        C998   1.403       .  A
C993       H1003   1.082       .  S
C994        C999   1.479       .  S
C994        C995   1.413       .  A
C995        C996   1.408       .  A
C995       C1000   1.518       .  S
C996        C997   1.408       .  A
C996       H1001   1.077       .  S
C997        C998   1.427       .  A
C998       C1002   1.523       .  S
C999       C1004   1.415       .  A
C999       C1008   1.400       .  A
C1000      F1016   1.382       .  S
C1000      F1017   1.381       .  S
C1000      F1018   1.384       .  S
C1002      F1013   1.385       .  S
C1002      F1014   1.383       .  S
C1002      F1015   1.383       .  S
C1004      C1005   1.408       .  A
C1004      C1009   1.519       .  S
C1005      C1006   1.405       .  A
C1005      H1010   1.084       .  S
C1006      C1007   1.416       .  A
C1007      C1008   1.401       .  A
C1007      C1011   1.518       .  S
C1008      H1012   1.085       .  S
C1009      F1022   1.385       .  S
C1009      F1023   1.382       .  S
C1009      F1024   1.381       .  S
C1011      F1019   1.383       .  S
C1011      F1020   1.380       .  S
C1011      F1021   1.385       .  S
C1025      C1026   1.405       .  A
C1025      C1030   1.411       .  A
C1025      H1035   1.083       .  S
C1026      C1031   1.491       .  S
C1026      C1027   1.418       .  A
C1027      C1028   1.406       .  A
C1027      C1032   1.520       .  S
C1028      C1029   1.403       .  A
C1028      H1033   1.084       .  S
C1029      C1030   1.417       .  A
C1030      C1034   1.518       .  S
C1031      C1036   1.414       .  A
C1031      C1040   1.399       .  A
C1032      F1048   1.382       .  S
C1032      F1049   1.382       .  S
C1032      F1050   1.384       .  S
C1034      F1045   1.384       .  S
C1034      F1046   1.381       .  S
C1034      F1047   1.384       .  S
C1036      C1037   1.408       .  A
C1036      C1041   1.520       .  S
C1037      C1038   1.412       .  A
C1037      H1042   1.082       .  S
C1038      C1039   1.430       .  A
C1039      C1040   1.411       .  A
C1039      C1043   1.521       .  S
C1040      H1044   1.083       .  S
C1041      F1054   1.385       .  S
C1041      F1055   1.381       .  S
C1041      F1056   1.383       .  S
C1043      F1051   1.383       .  S
C1043      F1052   1.383       .  S
C1043      F1053   1.385       .  S
C1057      C1058   1.401       .  A
C1057      C1062   1.406   1_545  A
C1057      H1067   1.082       .  S
C1058      C1063   1.485       .  S
C1058      C1059   1.418       .  A
C1059      C1060   1.408       .  A
C1059      C1064   1.519       .  S
C1060      C1061   1.402   1_545  A
C1060      H1065   1.082   1_545  S
C1061      C1062   1.415       .  A
C1062      C1066   1.518       .  S
C1063      C1068   1.413       .  A
C1063      C1072   1.399       .  A
C1064      F1080   1.382       .  S
C1064      F1081   1.382       .  S
C1064      F1082   1.385       .  S
C1066      F1077   1.383       .  S
C1066      F1078   1.384       .  S
C1066      F1079   1.383   1_556  S
C1068      C1069   1.407       .  A
C1068      C1073   1.519       .  S
C1069      C1070   1.410       .  A
C1069      H1074   1.081       .  S
C1070      C1071   1.426       .  A
C1071      C1072   1.408       .  A
C1071      C1075   1.520       .  S
C1072      H1076   1.083       .  S
C1073      F1086   1.385       .  S
C1073      F1087   1.382       .  S
C1073      F1088   1.382       .  S
C1075      F1083   1.384       .  S
C1075      F1084   1.383       .  S
C1075      F1085   1.385   1_556  S
C1089      C1090   1.399       .  A
C1089      C1094   1.405       .  A
C1089      H1099   1.084       .  S
C1090      C1095   1.483       .  S
C1090      C1091   1.414       .  A
C1091      C1092   1.409       .  A
C1091      C1096   1.518       .  S
C1092      C1093   1.408       .  A
C1092      H1097   1.082       .  S
C1093      C1094   1.423       .  A
C1094      C1098   1.519       .  S
C1095      C1100   1.420       .  A
C1095      C1104   1.403       .  A
C1096      F1112   1.383       .  S
C1096      F1113   1.382       .  S
C1096      F1114   1.385       .  S
C1098      F1109   1.385       .  S
C1098      F1110   1.384       .  S
C1098      F1111   1.383       .  S
C1100      C1101   1.403       .  A
C1100      C1105   1.521       .  S
C1101      C1102   1.403       .  A
C1101      H1106   1.088       .  S
C1102      C1103   1.417       .  A
C1103      C1104   1.409       .  A
C1103      C1107   1.518       .  S
C1104      H1108   1.085       .  S
C1105      F1118   1.382       .  S
C1105      F1119   1.384       .  S
C1105      F1120   1.381       .  S
C1107      F1115   1.384       .  S
C1107      F1116   1.384       .  S
C1107      F1117   1.381       .  S
C1121      C1122   1.401       .  A
C1121      C1126   1.407       .  A
C1121      H1131   1.084       .  S
C1122      C1127   1.486       .  S
C1122      C1123   1.415       .  A
C1123      C1124   1.407       .  A
C1123      C1128   1.519       .  S
C1124      C1125   1.409       .  A
C1124      H1129   1.083       .  S
C1125      C1126   1.424       .  A
C1126      C1130   1.520       .  S
C1127      C1132   1.417       .  A
C1127      C1136   1.400       .  A
C1128      F1144   1.382       .  S
C1128      F1145   1.383       .  S
C1128      F1146   1.384       .  S
C1130      F1141   1.385       .  S
C1130      F1142   1.383       .  S
C1130      F1143   1.384       .  S
C1132      C1133   1.411       .  A
C1132      C1137   1.518       .  S
C1133      C1134   1.405       .  A
C1133      H1138   1.083       .  S
C1134      C1135   1.418       .  A
C1135      C1136   1.401       .  A
C1135      C1139   1.519       .  S
C1136      H1140   1.085       .  S
C1137      F1150   1.385       .  S
C1137      F1151   1.382       .  S
C1137      F1152   1.383       .  S
C1139      F1147   1.383       .  S
C1139      F1148   1.380       .  S
C1139      F1149   1.384       .  S
C1153      C1154   1.401       .  A
C1153      C1158   1.407       .  A
C1153      H1163   1.085       .  S
C1154      C1159   1.482       .  S
C1154      C1155   1.416       .  A
C1155      C1156   1.405       .  A
C1155      C1160   1.521       .  S
C1156      C1157   1.403       .  A
C1156      H1161   1.085       .  S
C1157      C1158   1.417       .  A
C1158      C1162   1.518       .  S
C1159      C1164   1.411       .  A
C1159      C1168   1.399       .  A
C1160      F1176   1.382       .  S
C1160      F1177   1.382       .  S
C1160      F1178   1.385       .  S
C1162      F1173   1.382       .  S
C1162      F1174   1.385       .  S
C1162      F1175   1.383       .  S
C1164      C1165   1.406       .  A
C1164      C1169   1.520       .  S
C1165      C1166   1.412       .  A
C1165      H1170   1.081       .  S
C1166      C1167   1.426       .  A
C1167      C1168   1.407       .  A
C1167      C1171   1.522       .  S
C1168      H1172   1.082       .  S
C1169      F1182   1.384       .  S
C1169      F1183   1.382       .  S
C1169      F1184   1.382       .  S
C1171      F1179   1.383       .  S
C1171      F1180   1.384       .  S
C1171      F1181   1.385       .  S
C1185      C1186   1.400       .  A
C1185      C1190   1.410       .  A
C1185      H1195   1.083       .  S
C1186      C1191   1.478       .  S
C1186      C1187   1.411       .  A
C1187      C1188   1.401       .  A
C1187      C1192   1.523       .  S
C1188      C1189   1.412       .  A
C1188      H1193   1.081       .  S
C1189      C1190   1.424       .  A
C1190      C1194   1.519       .  S
C1191      C1196   1.416       .  A
C1191      C1200   1.402       .  A
C1192      F1208   1.382       .  S
C1192      F1209   1.382       .  S
C1192      F1210   1.385       .  S
C1194      F1205   1.383       .  S
C1194      F1206   1.384       .  S
C1194      F1207   1.384       .  S
C1196      C1197   1.404       .  A
C1196      C1201   1.520       .  S
C1197      C1198   1.402       .  A
C1197      H1202   1.083       .  S
C1198      C1199   1.414       .  A
C1199      C1200   1.406       .  A
C1199      C1203   1.517       .  S
C1200      H1204   1.082       .  S
C1201      F1214   1.385       .  S
C1201      F1215   1.382       .  S
C1201      F1216   1.382       .  S
C1203      F1211   1.383       .  S
C1203      F1212   1.382       .  S
C1203      F1213   1.385       .  S
C1217      C1218   1.399       .  A
C1217      C1222   1.405       .  A
C1217      H1227   1.082       .  S
C1218      C1223   1.475       .  S
C1218      C1219   1.409       .  A
C1219      C1220   1.404       .  A
C1219      C1224   1.520       .  S
C1220      C1221   1.410       .  A
C1220      H1225   1.075       .  S
C1221      C1222   1.423       .  A
C1222      C1226   1.520       .  S
C1223      C1228   1.417       .  A
C1223      C1232   1.401       .  A
C1224      F1240   1.382       .  S
C1224      F1241   1.382       .  S
C1224      F1242   1.385       .  S
C1226      F1237   1.383       .  S
C1226      F1238   1.385       .  S
C1226      F1239   1.383       .  S
C1228      C1229   1.403       .  A
C1228      C1233   1.523       .  S
C1229      C1230   1.401       .  A
C1229      H1234   1.084       .  S
C1230      C1231   1.413       .  A
C1231      C1232   1.405       .  A
C1231      C1235   1.517       .  S
C1232      H1236   1.084       .  S
C1233      F1246   1.384       .  S
C1233      F1247   1.382       .  S
C1233      F1248   1.382       .  S
C1235      F1243   1.383       .  S
C1235      F1244   1.382       .  S
C1235      F1245   1.384       .  S
C1249      C1250   1.402       .  A
C1249      C1254   1.410       .  A
C1249      H1259   1.082       .  S
C1250      C1255   1.488       .  S
C1250      C1251   1.416       .  A
C1251      C1252   1.408       .  A
C1251      C1256   1.520       .  S
C1252      C1253   1.407       .  A
C1252      H1257   1.082       .  S
C1253      C1254   1.421       .  A
C1254      C1258   1.520       .  S
C1255      C1260   1.417   1_565  A
C1255      C1264   1.403       .  A
C1256      F1272   1.382       .  S
C1256      F1273   1.381       .  S
C1256      F1274   1.385       .  S
C1258      F1269   1.385       .  S
C1258      F1270   1.383       .  S
C1258      F1271   1.384       .  S
C1260      C1261   1.411       .  A
C1260      C1265   1.519   1_545  S
C1261      C1262   1.405       .  A
C1261      H1266   1.084       .  S
C1262      C1263   1.415       .  A
C1263      C1264   1.406   1_545  A
C1263      C1267   1.518       .  S
C1264      H1268   1.084       .  S
C1265      F1278   1.385   1_565  S
C1265      F1279   1.382       .  S
C1265      F1280   1.381       .  S
C1267      F1275   1.384   1_545  S
C1267      F1276   1.384       .  S
C1267      F1277   1.382       .  S
C1281      C1282   1.402       .  A
C1281      C1286   1.402       .  A
C1281      H1291   1.084       .  S
C1282      C1287   1.481       .  S
C1282      C1283   1.416       .  A
C1283      C1284   1.408       .  A
C1283      C1288   1.519       .  S
C1284      C1285   1.403       .  A
C1284      H1289   1.084       .  S
C1285      C1286   1.414       .  A
C1286      C1290   1.518       .  S
C1287      C1292   1.414       .  A
C1287      C1296   1.401       .  A
C1288      F1304   1.382       .  S
C1288      F1305   1.382       .  S
C1288      F1306   1.384       .  S
C1290      F1301   1.383       .  S
C1290      F1302   1.384       .  S
C1290      F1303   1.381       .  S
C1292      C1293   1.405       .  A
C1292      C1297   1.520       .  S
C1293      C1294   1.409       .  A
C1293      H1298   1.083       .  S
C1294      C1295   1.421       .  A
C1295      C1296   1.406       .  A
C1295      C1299   1.519       .  S
C1296      H1300   1.084       .  S
C1297      F1310   1.385       .  S
C1297      F1311   1.382       .  S
C1297      F1312   1.382       .  S
C1299      F1307   1.385       .  S
C1299      F1308   1.384       .  S
C1299      F1309   1.382       .  S
C1313      C1314   1.399       .  A
C1313      C1318   1.405       .  A
C1313      H1323   1.082       .  S
C1314      C1319   1.483       .  S
C1314      C1315   1.415       .  A
C1315      C1316   1.408       .  A
C1315      C1320   1.519       .  S
C1316      C1317   1.406       .  A
C1316      H1321   1.082       .  S
C1317      C1318   1.422       .  A
C1318      C1322   1.517       .  S
C1319      C1324   1.417       .  A
C1319      C1328   1.402       .  A
C1320      F1336   1.382       .  S
C1320      F1337   1.382       .  S
C1320      F1338   1.384       .  S
C1322      F1333   1.381       .  S
C1322      F1334   1.385       .  S
C1322      F1335   1.384       .  S
C1324      C1325   1.407       .  A
C1324      C1329   1.520       .  S
C1325      C1326   1.402       .  A
C1325      H1330   1.083       .  S
C1326      C1327   1.415       .  A
C1327      C1328   1.406       .  A
C1327      C1331   1.518       .  S
C1328      H1332   1.082       .  S
C1329      F1342   1.384       .  S
C1329      F1343   1.382       .  S
C1329      F1344   1.382       .  S
C1331      F1339   1.384       .  S
C1331      F1340   1.383       .  S
C1331      F1341   1.382       .  S
C1345      C1346   1.400       .  A
C1345      C1350   1.408       .  A
C1345      H1355   1.083       .  S
C1346      C1351   1.488       .  S
C1346      C1347   1.412       .  A
C1347      C1348   1.410       .  A
C1347      C1352   1.518       .  S
C1348      C1349   1.410       .  A
C1348      H1353   1.083       .  S
C1349      C1350   1.426       .  A
C1350      C1354   1.521       .  S
C1351      C1356   1.418       .  A
C1351      C1360   1.404       .  A
C1352      F1368   1.383       .  S
C1352      F1369   1.382       .  S
C1352      F1370   1.384       .  S
C1354      F1365   1.383       .  S
C1354      F1366   1.385       .  S
C1354      F1367   1.383       .  S
C1356      C1357   1.405       .  A
C1356      C1361   1.521       .  S
C1357      C1358   1.401       .  A
C1357      H1362   1.084       .  S
C1358      C1359   1.415       .  A
C1359      C1360   1.410       .  A
C1359      C1363   1.517       .  S
C1360      H1364   1.083       .  S
C1361      F1374   1.385       .  S
C1361      F1375   1.382       .  S
C1361      F1376   1.382       .  S
C1363      F1371   1.383       .  S
C1363      F1372   1.383       .  S
C1363      F1373   1.384       .  S
C1377      C1378   1.400       .  A
C1377      C1382   1.407       .  A
C1377      H1387   1.083       .  S
C1378      C1383   1.485       .  S
C1378      C1379   1.412       .  A
C1379      C1380   1.408       .  A
C1379      C1384   1.519       .  S
C1380      C1381   1.411       .  A
C1380      H1385   1.083       .  S
C1381      C1382   1.425       .  A
C1382      C1386   1.521       .  S
C1383      C1388   1.418       .  A
C1383      C1392   1.403       .  A
C1384      F1400   1.382       .  S
C1384      F1401   1.381       .  S
C1384      F1402   1.385       .  S
C1386      F1397   1.383       .  S
C1386      F1398   1.385       .  S
C1386      F1399   1.384       .  S
C1388      C1389   1.407       .  A
C1388      C1393   1.522       .  S
C1389      C1390   1.403       .  A
C1389      H1394   1.084       .  S
C1390      C1391   1.416       .  A
C1391      C1392   1.409       .  A
C1391      C1395   1.517       .  S
C1392      H1396   1.084       .  S
C1393      F1406   1.384       .  S
C1393      F1407   1.382       .  S
C1393      F1408   1.381       .  S
C1395      F1403   1.384       .  S
C1395      F1404   1.383       .  S
C1395      F1405   1.382       .  S
C1409      C1410   1.401       .  A
C1409      C1414   1.405       .  A
C1409      H1419   1.084       .  S
C1410      C1415   1.482       .  S
C1410      C1411   1.415       .  A
C1411      C1412   1.404       .  A
C1411      C1416   1.520       .  S
C1412      C1413   1.406       .  A
C1412      H1417   1.084       .  S
C1413      C1414   1.424       .  A
C1414      C1418   1.521       .  S
C1415      C1420   1.416       .  A
C1415      C1424   1.401       .  A
C1416      F1432   1.381       .  S
C1416      F1433   1.382       .  S
C1416      F1434   1.384       .  S
C1418      F1429   1.385       .  S
C1418      F1430   1.383       .  S
C1418      F1431   1.384       .  S
C1420      C1421   1.410       .  A
C1420      C1425   1.518       .  S
C1421      C1422   1.404       .  A
C1421      H1426   1.083       .  S
C1422      C1423   1.414       .  A
C1423      C1424   1.401       .  A
C1423      C1427   1.517       .  S
C1424      H1428   1.084       .  S
C1425      F1438   1.384       .  S
C1425      F1439   1.382       .  S
C1425      F1440   1.382       .  S
C1427      F1435   1.381       .  S
C1427      F1436   1.382       .  S
C1427      F1437   1.385       .  S
C1441      C1442   1.400       .  A
C1441      C1446   1.403       .  A
C1441      H1451   1.085       .  S
C1442      C1447   1.476       .  S
C1442      C1443   1.417       .  A
C1443      C1444   1.403       .  A
C1443      C1448   1.522       .  S
C1444      C1445   1.402       .  A
C1444      H1449   1.084       .  S
C1445      C1446   1.416       .  A
C1446      C1450   1.515       .  S
C1447      C1452   1.412       .  A
C1447      C1456   1.401       .  A
C1448      F1464   1.382       .  S
C1448      F1465   1.381       .  S
C1448      F1466   1.385       .  S
C1450      F1461   1.384       .  S
C1450      F1462   1.381       .  S
C1450      F1463   1.384       .  S
C1452      C1453   1.407       .  A
C1452      C1457   1.518       .  S
C1453      C1454   1.405       .  A
C1453      H1458   1.085       .  S
C1454      C1455   1.416       .  A
C1455      C1456   1.403       .  A
C1455      C1459   1.519       .  S
C1456      H1460   1.086       .  S
C1457      F1470   1.384       .  S
C1457      F1471   1.383       .  S
C1457      F1472   1.381       .  S
C1459      F1467   1.385       .  S
C1459      F1468   1.382       .  S
C1459      F1469   1.382       .  S
C1473      C1474   1.399       .  A
C1473      C1478   1.406       .  A
C1473      H1483   1.083       .  S
C1474      C1479   1.483       .  S
C1474      C1475   1.413       .  A
C1475      C1476   1.406       .  A
C1475      C1480   1.520       .  S
C1476      C1477   1.412       .  A
C1476      H1481   1.081       .  S
C1477      C1478   1.427       .  A
C1478      C1482   1.521       .  S
C1479      C1484   1.417       .  A
C1479      C1488   1.403       .  A
C1480      F1496   1.381       .  S
C1480      F1497   1.382       .  S
C1480      F1498   1.385       .  S
C1482      F1493   1.384       .  S
C1482      F1494   1.385       .  S
C1482      F1495   1.383       .  S
C1484      C1485   1.407       .  A
C1484      C1489   1.519       .  S
C1485      C1486   1.401       .  A
C1485      H1490   1.084       .  S
C1486      C1487   1.414       .  A
C1487      C1488   1.405       .  A
C1487      C1491   1.519       .  S
C1488      H1492   1.084       .  S
C1489      F1502   1.384       .  S
C1489      F1503   1.382       .  S
C1489      F1504   1.382       .  S
C1491      F1499   1.383       .  S
C1491      F1500   1.384       .  S
C1491      F1501   1.383       .  S
C1505      C1506   1.401       .  A
C1505      C1510   1.405       .  A
C1505      H1515   1.082       .  S
C1506      C1511   1.482       .  S
C1506      C1507   1.416       .  A
C1507      C1508   1.407       .  A
C1507      C1512   1.518   1_556  S
C1508      C1509   1.403       .  A
C1508      H1513   1.082       .  S
C1509      C1510   1.417       .  A
C1510      C1514   1.519       .  S
C1511      C1516   1.418       .  A
C1511      C1520   1.401       .  A
C1512      F1528   1.382       .  S
C1512      F1529   1.382       .  S
C1512      F1530   1.385       .  S
C1514      F1525   1.383       .  S
C1514      F1526   1.385       .  S
C1514      F1527   1.382       .  S
C1516      C1517   1.407       .  A
C1516      C1521   1.520       .  S
C1517      C1518   1.401       .  A
C1517      H1522   1.084       .  S
C1518      C1519   1.415       .  A
C1519      C1520   1.406       .  A
C1519      C1523   1.517       .  S
C1520      H1524   1.083       .  S
C1521      F1534   1.385       .  S
C1521      F1535   1.382       .  S
C1521      F1536   1.382       .  S
C1523      F1531   1.383       .  S
C1523      F1532   1.383   1_556  S
C1523      F1533   1.384       .  S
C1537      C1538   1.401       .  A
C1537      C1542   1.405       .  A
C1537      H1547   1.083       .  S
C1538      C1543   1.476       .  S
C1538      C1539   1.416       .  A
C1539      C1540   1.403       .  A
C1539      C1544   1.520       .  S
C1540      C1541   1.400       .  A
C1540      H1545   1.084   1_556  S
C1541      C1542   1.416       .  A
C1542      C1546   1.518       .  S
C1543      C1548   1.414       .  A
C1543      C1552   1.400       .  A
C1544      F1560   1.382       .  S
C1544      F1561   1.382   1_556  S
C1544      F1562   1.384   1_556  S
C1546      F1557   1.384       .  S
C1546      F1558   1.382       .  S
C1546      F1559   1.381       .  S
C1548      C1549   1.405       .  A
C1548      C1553   1.519       .  S
C1549      C1550   1.403       .  A
C1549      H1554   1.083       .  S
C1550      C1551   1.416       .  A
C1551      C1552   1.403       .  A
C1551      C1555   1.517       .  S
C1552      H1556   1.083       .  S
C1553      F1566   1.384   1_556  S
C1553      F1567   1.383       .  S
C1553      F1568   1.382   1_556  S
C1555      F1563   1.381       .  S
C1555      F1564   1.383       .  S
C1555      F1565   1.385       .  S
C1569      C1570   1.403       .  A
C1569      C1574   1.407       .  A
C1569      H1579   1.084       .  S
C1570      C1575   1.479       .  S
C1570      C1571   1.417       .  A
C1571      C1572   1.402       .  A
C1571      C1576   1.521       .  S
C1572      C1573   1.400       .  A
C1572      H1577   1.084       .  S
C1573      C1574   1.412       .  A
C1574      C1578   1.517       .  S
C1575      C1580   1.411       .  A
C1575      C1584   1.396       .  A
C1576      F1592   1.382       .  S
C1576      F1593   1.382       .  S
C1576      F1594   1.384       .  S
C1578      F1589   1.383   1_556  S
C1578      F1590   1.384       .  S
C1578      F1591   1.383       .  S
C1580      C1581   1.405       .  A
C1580      C1585   1.520       .  S
C1581      C1582   1.411       .  A
C1581      H1586   1.081       .  S
C1582      C1583   1.428       .  A
C1583      C1584   1.406       .  A
C1583      C1587   1.518       .  S
C1584      H1588   1.082       .  S
C1585      F1598   1.384   1_556  S
C1585      F1599   1.383       .  S
C1585      F1600   1.383   1_556  S
C1587      F1595   1.385       .  S
C1587      F1596   1.382       .  S
C1587      F1597   1.383       .  S
C1601      C1602   1.400       .  A
C1601      C1606   1.406   1_565  A
C1601      H1611   1.083       .  S
C1602      C1607   1.482       .  S
C1602      C1603   1.414       .  A
C1603      C1604   1.405   1_565  A
C1603      C1608   1.520       .  S
C1604      C1605   1.408       .  A
C1604      H1609   1.082   1_556  S
C1605      C1606   1.423       .  A
C1606      C1610   1.520       .  S
C1607      C1612   1.415       .  A
C1607      C1616   1.399       .  A
C1608      F1624   1.382       .  S
C1608      F1625   1.383   1_556  S
C1608      F1626   1.385   1_556  S
C1610      F1621   1.385   1_545  S
C1610      F1622   1.382       .  S
C1610      F1623   1.383       .  S
C1612      C1613   1.405       .  A
C1612      C1617   1.520       .  S
C1613      C1614   1.408       .  A
C1613      H1618   1.082       .  S
C1614      C1615   1.422       .  A
C1615      C1616   1.405       .  A
C1615      C1619   1.520       .  S
C1616      H1620   1.082       .  S
C1617      F1630   1.385       .  S
C1617      F1631   1.382       .  S
C1617      F1632   1.383   1_556  S
C1619      F1627   1.380       .  S
C1619      F1628   1.384       .  S
C1619      F1629   1.385       .  S
C1633      C1634   1.399       .  A
C1633      C1638   1.411       .  A
C1633      H1643   1.084       .  S
C1634      C1639   1.480       .  S
C1634      C1635   1.412       .  A
C1635      C1636   1.400       .  A
C1635      C1640   1.523       .  S
C1636      C1637   1.410       .  A
C1636      H1641   1.082       .  S
C1637      C1638   1.429       .  A
C1638      C1642   1.521       .  S
C1639      C1644   1.414       .  A
C1639      C1648   1.402       .  A
C1640      F1656   1.382       .  S
C1640      F1657   1.382       .  S
C1640      F1658   1.385       .  S
C1642      F1653   1.385       .  S
C1642      F1654   1.383       .  S
C1642      F1655   1.384       .  S
C1644      C1645   1.406       .  A
C1644      C1649   1.518       .  S
C1645      C1646   1.402       .  A
C1645      H1650   1.085       .  S
C1646      C1647   1.414       .  A
C1647      C1648   1.404       .  A
C1647      C1651   1.517       .  S
C1648      H1652   1.085       .  S
C1649      F1662   1.384       .  S
C1649      F1663   1.382       .  S
C1649      F1664   1.383       .  S
C1651      F1659   1.385       .  S
C1651      F1660   1.383       .  S
C1651      F1661   1.383       .  S
C1665      C1666   1.402       .  A
C1665      C1670   1.406       .  A
C1665      H1675   1.083       .  S
C1666      C1671   1.479       .  S
C1666      C1667   1.415       .  A
C1667      C1668   1.403       .  A
C1667      C1672   1.519       .  S
C1668      C1669   1.402       .  A
C1668      H1673   1.083       .  S
C1669      C1670   1.415       .  A
C1670      C1674   1.517       .  S
C1671      C1676   1.412       .  A
C1671      C1680   1.401       .  A
C1672      F1688   1.382       .  S
C1672      F1689   1.382       .  S
C1672      F1690   1.385       .  S
C1674      F1685   1.381       .  S
C1674      F1686   1.385       .  S
C1674      F1687   1.383       .  S
C1676      C1677   1.399       .  A
C1676      C1681   1.523       .  S
C1677      C1678   1.409       .  A
C1677      H1682   1.081       .  S
C1678      C1679   1.427       .  A
C1679      C1680   1.412       .  A
C1679      C1683   1.520       .  S
C1680      H1684   1.082       .  S
C1681      F1694   1.384       .  S
C1681      F1695   1.382       .  S
C1681      F1696   1.382       .  S
C1683      F1691   1.385       .  S
C1683      F1692   1.383       .  S
C1683      F1693   1.382       .  S
C1697      C1698   1.400       .  A
C1697      C1702   1.404       .  A
C1697      H1707   1.084       .  S
C1698      C1703   1.477       .  S
C1698      C1699   1.417       .  A
C1699      C1700   1.405       .  A
C1699      C1704   1.522       .  S
C1700      C1701   1.403       .  A
C1700      H1705   1.084       .  S
C1701      C1702   1.416       .  A
C1702      C1706   1.517       .  S
C1703      C1708   1.409       .  A
C1703      C1712   1.398       .  A
C1704      F1720   1.382       .  S
C1704      F1721   1.381       .  S
C1704      F1722   1.385       .  S
C1706      F1717   1.379       .  S
C1706      F1718   1.384       .  S
C1706      F1719   1.384       .  S
C1708      C1709   1.406       .  A
C1708      C1713   1.521       .  S
C1709      C1710   1.414       .  A
C1709      H1714   1.080       .  S
C1710      C1711   1.428       .  A
C1711      C1712   1.406       .  A
C1711      C1715   1.522       .  S
C1712      H1716   1.081       .  S
C1713      F1726   1.384       .  S
C1713      F1727   1.383       .  S
C1713      F1728   1.381       .  S
C1715      F1723   1.385       .  S
C1715      F1724   1.384       .  S
C1715      F1725   1.383       .  S
C1729      C1730   1.399       .  A
C1729      C1734   1.407       .  A
C1729      H1739   1.082       .  S
C1730      C1735   1.484       .  S
C1730      C1731   1.414       .  A
C1731      C1732   1.405       .  A
C1731      C1736   1.521       .  S
C1732      C1733   1.409       .  A
C1732      H1737   1.082       .  S
C1733      C1734   1.426       .  A
C1734      C1738   1.521       .  S
C1735      C1740   1.419       .  A
C1735      C1744   1.402       .  A
C1736      F1752   1.381       .  S
C1736      F1753   1.383       .  S
C1736      F1754   1.385       .  S
C1738      F1749   1.384       .  S
C1738      F1750   1.385       .  S
C1738      F1751   1.381       .  S
C1740      C1741   1.405       .  A
C1740      C1745   1.521       .  S
C1741      C1742   1.402       .  A
C1741      H1746   1.083       .  S
C1742      C1743   1.415       .  A
C1743      C1744   1.406       .  A
C1743      C1747   1.518       .  S
C1744      H1748   1.082       .  S
C1745      F1758   1.385       .  S
C1745      F1759   1.382       .  S
C1745      F1760   1.383       .  S
C1747      F1755   1.381       .  S
C1747      F1756   1.384       .  S
C1747      F1757   1.384       .  S
C1761      C1762   1.398       .  A
C1761      C1766   1.403       .  A
C1761      H1771   1.083       .  S
C1762      C1767   1.475       .  S
C1762      C1763   1.414       .  A
C1763      C1764   1.403       .  A
C1763      C1768   1.520       .  S
C1764      C1765   1.406       .  A
C1764      H1769   1.083       .  S
C1765      C1766   1.418       .  A
C1766      C1770   1.514       .  S
C1767      C1772   1.415       .  A
C1767      C1776   1.400       .  A
C1768      F1784   1.382       .  S
C1768      F1785   1.382       .  S
C1768      F1786   1.385       .  S
C1770      F1781   1.382       .  S
C1770      F1782   1.384       .  S
C1770      F1783   1.382       .  S
C1772      C1773   1.407       .  A
C1772      C1777   1.519       .  S
C1773      C1774   1.402       .  A
C1773      H1778   1.086       .  S
C1774      C1775   1.414       .  A
C1775      C1776   1.399       .  A
C1775      C1779   1.518       .  S
C1776      H1780   1.086       .  S
C1777      F1790   1.384       .  S
C1777      F1791   1.382       .  S
C1777      F1792   1.382       .  S
C1779      F1787   1.385       .  S
C1779      F1788   1.381       .  S
C1779      F1789   1.383       .  S
C1793      C1794   1.402       .  A
C1793      C1798   1.412       .  A
C1793      H1803   1.085       .  S
C1794      C1799   1.492       .  S
C1794      C1795   1.414       .  A
C1795      C1796   1.408       .  A
C1795      C1800   1.521       .  S
C1796      C1797   1.409       .  A
C1796      H1801   1.082       .  S
C1797      C1798   1.425       .  A
C1798      C1802   1.519       .  S
C1799      C1804   1.419       .  A
C1799      C1808   1.402       .  A
C1800      F1816   1.382       .  S
C1800      F1817   1.382       .  S
C1800      F1818   1.383       .  S
C1802      F1813   1.383       .  S
C1802      F1814   1.385       .  S
C1802      F1815   1.384       .  S
C1804      C1805   1.410       .  A
C1804      C1809   1.519       .  S
C1805      C1806   1.403       .  A
C1805      H1810   1.084       .  S
C1806      C1807   1.415       .  A
C1807      C1808   1.408       .  A
C1807      C1811   1.516       .  S
C1808      H1812   1.084       .  S
C1809      F1822   1.385       .  S
C1809      F1823   1.382       .  S
C1809      F1824   1.382       .  S
C1811      F1819   1.385       .  S
C1811      F1820   1.381       .  S
C1811      F1821   1.382       .  S
C1825      C1826   1.400       .  A
C1825      C1830   1.404       .  A
C1825      H1835   1.084       .  S
C1826      C1831   1.485       .  S
C1826      C1827   1.418       .  A
C1827      C1828   1.410       .  A
C1827      C1832   1.519       .  S
C1828      C1829   1.403       .  A
C1828      H1833   1.084       .  S
C1829      C1830   1.415       .  A
C1830      C1834   1.516       .  S
C1831      C1836   1.417       .  A
C1831      C1840   1.403       .  A
C1832      F1848   1.382       .  S
C1832      F1849   1.383       .  S
C1832      F1850   1.385       .  S
C1834      F1845   1.383       .  S
C1834      F1846   1.385       .  S
C1834      F1847   1.379       .  S
C1836      C1837   1.405   1_545  A
C1836      C1841   1.519       .  S
C1837      C1838   1.401       .  A
C1837      H1842   1.083       .  S
C1838      C1839   1.417       .  A
C1839      C1840   1.408   1_565  A
C1839      C1843   1.519       .  S
C1840      H1844   1.083       .  S
C1841      F1854   1.385       .  S
C1841      F1855   1.382       .  S
C1841      F1856   1.382       .  S
C1843      F1851   1.382       .  S
C1843      F1852   1.383       .  S
C1843      F1853   1.385       .  S
