geometry optimzed in LAMMPS
_audit_creation_date              2020-12-01 
_audit_creation_method            'lammps2cif' 
_symmetry_space_group_name_H-M    'P1' 
_symmetry_Int_Tables_number       1 
_symmetry_cell_setting            triclinic 
loop_ 
_symmetry_equiv_pos_as_xyz 
  x,y,z 
_cell_length_a                    50.16260051 
_cell_length_b                    50.13942213625504 
_cell_length_c                    50.331050914000784 
_cell_angle_alpha                 90.21540544750519 
_cell_angle_beta                  89.70943159251381 
_cell_angle_gamma                 89.97726784829611 
loop_ 
_atom_site_label 
_atom_site_type_symbol 
_atom_site_fract_x 
_atom_site_fract_y 
_atom_site_fract_z 
_atom_site_charge 
Fe1        Fe  0.76726264  0.82222890  0.60478834     1.65800
Fe2        Fe  0.72777769  0.84036090  0.55383587     1.73200
Fe3        Fe  0.77550710  0.79271979  0.54410414     1.54400
O4          O  0.81286875  0.80523295  0.55558599    -0.81800
O5          O  0.71396081  0.81173942  0.52740720    -0.80100
O6          O  0.80755556  0.82089745  0.59670253    -0.84300
O7          O  0.76627442  0.78188745  0.61103582    -0.79100
O8          O  0.77730853  0.82049881  0.51358587    -0.80900
O9          O  0.70163538  0.82512034  0.58165207    -0.83700
C10         C  0.77170734  0.76132722  0.59731247     0.97100
C11         C  0.82222484  0.81436693  0.57712207     1.04500
O12         O  0.75693570  0.81826739  0.56756744    -1.12600
O13         O  0.73507199  0.87308183  0.57860469    -0.75100
O14         O  0.76997047  0.86299787  0.60314986    -0.78600
O15         O  0.77613484  0.76240624  0.57239142    -0.79200
C16         C  0.75239048  0.87941714  0.59583888     0.96000
O17         O  0.72785399  0.82394107  0.61743535    -0.77200
O18         O  0.75295864  0.85617365  0.52518426    -0.82400
C19         C  0.71957745  0.78777124  0.52151011     0.98600
C20         C  0.76969900  0.84448207  0.50992308     1.04600
O21         O  0.74074216  0.77652462  0.52926749    -0.78000
C22         C  0.70506797  0.82234193  0.60648981     1.02900
Fe23       Fe  0.80532999  0.89961970  0.28152589     1.65800
Fe24       Fe  0.78840813  0.96417714  0.28774022     1.73200
Fe25       Fe  0.83074362  0.94457927  0.23877925     1.54400
O26         O  0.86329358  0.92524885  0.25440915    -0.81800
O27         O  0.78085557  0.98604455  0.25331172    -0.80100
O28         O  0.84422447  0.88918425  0.27126207    -0.84300
O29         O  0.79186111  0.88777571  0.24495310    -0.79100
O30         O  0.84451778  0.97998719  0.25597575    -0.80900
O31         O  0.75274155  0.94452565  0.28182248    -0.83700
C32         C  0.80163923  0.89232441  0.22211013     0.97100
C33         C  0.86468861  0.90144806  0.26273082     1.04500
O34         O  0.80835215  0.93624724  0.26934020    -1.12600
O35         O  0.79283120  0.94600654  0.32500250    -0.75100
O36         O  0.81811732  0.90999719  0.31881288    -0.78600
O37         O  0.81907719  0.91036600  0.21794958    -0.79200
C38         C  0.80635061  0.92649877  0.33405864     0.96000
O39         O  0.76591662  0.90386954  0.29352066    -0.77200
O40         O  0.82274361  0.98571157  0.29440262    -0.82400
C41         C  0.78488731  0.98238651  0.22856871     0.98600
C42         C  0.84094538  0.99225525  0.27798060     1.04600
O43         O  0.80047520  0.96441526  0.21995689    -0.78000
C44         C  0.74772554  0.92090708  0.28919507     1.02900
Fe45       Fe  0.10067269  0.78441336  0.67297322     1.65800
Fe46       Fe  0.03785116  0.78831291  0.69684118     1.73200
Fe47       Fe  0.05292012  0.74450262  0.64641654     1.54400
O48         O  0.07299412  0.76111917  0.61436873    -0.81800
O49         O  0.01879049  0.75268037  0.70514209    -0.80100
O50         O  0.10832071  0.77931437  0.63312279    -0.84300
O51         O  0.11311262  0.74607582  0.68059425    -0.79100
O52         O  0.01903900  0.76555761  0.63501081    -0.80900
O53         O  0.06123264  0.78123149  0.72963943    -0.83700
C54         C  0.10605674  0.72359833  0.67110101     0.97100
C55         C  0.09606071  0.77129954  0.61272655     1.04500
O56         O  0.06358100  0.77239091  0.67185537    -1.12600
O57         O  0.05400869  0.82662676  0.69230167    -0.75100
O58         O  0.08966328  0.82323051  0.66573759    -0.78600
O59         O  0.08575347  0.72074973  0.65611309    -0.79200
C60         C  0.07274453  0.83712631  0.67861361     0.96000
O61         O  0.10076536  0.79210268  0.71316456    -0.77200
O62         O  0.01138315  0.79608804  0.66680460    -0.82400
C63         C  0.01849463  0.72932837  0.69532465     0.98600
C64         C  0.00554966  0.78474766  0.64495746     1.04600
O65         O  0.03126926  0.72336772  0.67432966    -0.78000
C66         C  0.08538062  0.78767479  0.73263100     1.02900
Fe67       Fe  0.21659312  0.19069059  0.38509837     1.65800
Fe68       Fe  0.20622129  0.21151292  0.44885496     1.73200
Fe69       Fe  0.25614280  0.16662468  0.43423282     1.54400
O70         O  0.24357663  0.13330911  0.41333350    -0.81800
O71         O  0.23996658  0.22309814  0.46979994    -0.80100
O72         O  0.22325818  0.15056755  0.37826317    -0.84300
O73         O  0.25493967  0.19985961  0.37434497    -0.79100
O74         O  0.23558755  0.15292123  0.46733409    -0.80900
O75         O  0.20978441  0.24631224  0.42675152    -0.83700
C76         C  0.27753989  0.19211394  0.38239609     0.97100
C77         C  0.23335645  0.13093714  0.39042498     1.04500
O78         O  0.22623593  0.18947262  0.42283353    -1.12600
O79         O  0.16976236  0.20336922  0.43129958    -0.75100
O80         O  0.17718903  0.18224301  0.39289694    -0.78600
O81         O  0.28070781  0.17781644  0.40290639    -0.79200
C82         C  0.16149529  0.19138825  0.41058628     0.96000
O83         O  0.20909201  0.23107772  0.38517076    -0.77200
O84         O  0.20029199  0.17931495  0.47395729    -0.82400
C85         C  0.26440873  0.21641378  0.46949858     0.98600
C86         C  0.21448786  0.15922195  0.48001767     1.04600
O87         O  0.27307910  0.19689779  0.45592827    -0.78000
C88         C  0.20867412  0.25003595  0.40184826     1.02900
Fe89       Fe  0.17942595  0.11370803  0.71734644     1.65800
Fe90       Fe  0.15357349  0.06419068  0.75543191     1.73200
Fe91       Fe  0.20027409  0.04982300  0.70740504     1.54400
O92         O  0.19322794  0.06767528  0.67054250    -0.81800
O93         O  0.18311454  0.04282277  0.77397759    -0.80100
O94         O  0.17175385  0.10592964  0.67796960    -0.84300
O95         O  0.21988944  0.11333980  0.71023906    -0.79100
O96         O  0.16868301  0.02465538  0.70049878    -0.80900
O97         O  0.16311056  0.09637519  0.77996355    -0.83700
C98         C  0.23876732  0.09654780  0.71016970     0.97100
C99         C  0.18125434  0.08847862  0.66219240     1.04500
O100        O  0.17769709  0.07579966  0.72668947    -1.12600
O101        O  0.12112184  0.08443780  0.74079703    -0.75100
O102        O  0.13922672  0.12096590  0.72369569    -0.78600
O103        O  0.23483905  0.07166708  0.71190868    -0.79200
C104        C  0.11919134  0.10809514  0.73222917     0.96000
O105        O  0.18766928  0.12439316  0.75574695    -0.77200
O106        O  0.14077322  0.03057963  0.73463639    -0.82400
C107        C  0.20273667  0.02895480  0.76594553     0.98600
C108        C  0.14805750  0.01821590  0.71368937     1.04600
O109        O  0.21034568  0.02887248  0.74175438    -0.78000
C110        C  0.17762756  0.11707303  0.77771703     1.02900
Fe111      Fe  0.88412982  0.23147495  0.31959491     1.65800
Fe112      Fe  0.93573859  0.26904405  0.33985533     1.73200
Fe113      Fe  0.94522047  0.22386798  0.29037392     1.54400
O114        O  0.93350747  0.18559715  0.30171787    -0.81800
O115        O  0.96325240  0.28312996  0.31284639    -0.80100
O116        O  0.89152536  0.19125724  0.31517112    -0.84300
O117        O  0.87840938  0.23553064  0.27951581    -0.79100
O118        O  0.97610480  0.22185626  0.31750231    -0.80900
O119        O  0.90865896  0.29623756  0.32490748    -0.83700
C120        C  0.89235434  0.22948475  0.25930411     0.97100
C121        C  0.91103989  0.17625617  0.30909281     1.04500
O122        O  0.92171300  0.24116929  0.31656542    -1.12600
O123        O  0.91021420  0.26092445  0.37136425    -0.75100
O124        O  0.88538353  0.22635960  0.36021529    -0.78600
O125        O  0.91693957  0.22359857  0.26060526    -0.79200
C126        C  0.89284167  0.24350052  0.37715162     0.96000
O127        O  0.87213681  0.27077619  0.32390703    -0.77200
O128        O  0.96370639  0.24282294  0.35494993    -0.82400
C129        C  0.96822512  0.28016016  0.28834240     0.98600
C130        C  0.97964676  0.22784230  0.34187547     1.04600
O131        O  0.95936882  0.26017628  0.27549358    -0.78000
C132        C  0.88362353  0.29333339  0.32221139     1.02900
Fe133      Fe  0.72259856  0.32076026  0.60879998     1.65800
Fe134      Fe  0.71156049  0.30135172  0.54558371     1.73200
Fe135      Fe  0.76059211  0.34653932  0.55925685     1.54400
O136        O  0.74638863  0.37945101  0.58023819    -0.81800
O137        O  0.74476263  0.29190332  0.52260527    -0.80100
O138        O  0.73199265  0.35999572  0.61703862    -0.84300
O139        O  0.76099161  0.30928948  0.61748864    -0.79100
O140        O  0.73968430  0.35951274  0.52574739    -0.80900
O141        O  0.71778666  0.26630150  0.56638362    -0.83700
C142        C  0.78304636  0.31966391  0.61043428     0.97100
C143        C  0.73938993  0.38062366  0.60451257     1.04500
O144        O  0.73154937  0.32307667  0.57104326    -1.12600
O145        O  0.67558650  0.30794581  0.56536805    -0.75100
O146        O  0.68362196  0.33170605  0.60198958    -0.78600
O147        O  0.78499146  0.33588122  0.59104864    -0.79200
C148        C  0.66753538  0.32128544  0.58546872     0.96000
O149        O  0.71153203  0.28110499  0.60756129    -0.77200
O150        O  0.70340731  0.33396752  0.52217680    -0.82400
C151        C  0.76934656  0.29800340  0.52284335     0.98600
C152        C  0.71760110  0.35354965  0.51470589     1.04600
O153        O  0.77854971  0.31641084  0.53754408    -0.78000
C154        C  0.71279978  0.26229791  0.59074487     1.02900
Fe155      Fe  0.67318766  0.39421351  0.27648665     1.65800
Fe156      Fe  0.64712806  0.44420159  0.23853556     1.73200
Fe157      Fe  0.69447919  0.45849513  0.28570457     1.54400
O158        O  0.68528758  0.44330941  0.32310358    -0.81800
O159        O  0.67455013  0.46959838  0.22197007    -0.80100
O160        O  0.67084866  0.40174085  0.31691414    -0.84300
O161        O  0.71408090  0.39372958  0.27757445    -0.79100
O162        O  0.66363333  0.48567042  0.29003846    -0.80900
O163        O  0.66028360  0.41488804  0.21208673    -0.83700
C164        C  0.73274616  0.41045446  0.28041732     0.97100
C165        C  0.67717975  0.42102483  0.33211759     1.04500
O166        O  0.67147311  0.43233724  0.26703177    -1.12600
O167        O  0.61585500  0.42030479  0.25018164    -0.75100
O168        O  0.63242442  0.38842806  0.27582522    -0.78600
O169        O  0.72851198  0.43517942  0.28367088    -0.79200
C170        C  0.61319723  0.39907049  0.26347779     0.96000
O171        O  0.67645098  0.38231231  0.23740746    -0.77200
O172        O  0.63145957  0.47502532  0.26153443    -0.82400
C173        C  0.69664697  0.48002552  0.22818949     0.98600
C174        C  0.64091266  0.48990764  0.27973603     1.04600
O175        O  0.70720204  0.47668687  0.25081606    -0.78000
C176        C  0.67093072  0.39202069  0.21484277     1.02900
Fe177      Fe  0.31719119  0.61446168  0.70754960     1.65800
Fe178      Fe  0.29347381  0.55192407  0.70073145     1.73200
Fe179      Fe  0.33902248  0.56591095  0.74893822     1.54400
O180        O  0.37325203  0.58396677  0.73440259    -0.81800
O181        O  0.28375648  0.53052683  0.73459788    -0.80100
O182        O  0.35702411  0.62033557  0.71563510    -0.84300
O183        O  0.30710758  0.62725572  0.74518692    -0.79100
O184        O  0.35031370  0.53083256  0.72966248    -0.80900
O185        O  0.25978751  0.57541576  0.70695003    -0.83700
C186        C  0.31545866  0.62027976  0.76794963     0.97100
C187        C  0.37637341  0.60723134  0.72503970     1.04500
O188        O  0.31674502  0.57730431  0.71910681    -1.12600
O189        O  0.29935977  0.56961136  0.66385005    -0.75100
O190        O  0.32680688  0.60400021  0.66901673    -0.78600
O191        O  0.32959941  0.59949149  0.77145613    -0.79200
C192        C  0.31339060  0.58842196  0.65425563     0.96000
O193        O  0.27728664  0.61506767  0.69770387    -0.77200
O194        O  0.32524189  0.52658356  0.69324176    -0.82400
C195        C  0.28967212  0.53169989  0.75905771     0.98600
C196        C  0.34433242  0.51901442  0.70800893     1.04600
O197        O  0.30788482  0.54680890  0.76780722    -0.78000
C198        C  0.25732866  0.59982732  0.70068437     1.02900
Fe199      Fe  0.38626025  0.27763528  0.66970271     1.65800
Fe200      Fe  0.43831447  0.24134846  0.64690502     1.73200
Fe201      Fe  0.44803893  0.28687901  0.69621401     1.54400
O202        O  0.43476154  0.32453286  0.68539660    -0.81800
O203        O  0.46677113  0.22776945  0.67295000    -0.80100
O204        O  0.39267430  0.31818636  0.67311183    -0.84300
O205        O  0.38188565  0.27407167  0.70998558    -0.79100
O206        O  0.47784120  0.29031457  0.66778209    -0.80900
O207        O  0.41227225  0.21336158  0.66214928    -0.83700
C208        C  0.39630711  0.28028118  0.72965126     0.97100
C209        C  0.41212500  0.33348516  0.67844515     1.04500
O210        O  0.42421133  0.26880678  0.67102081    -1.12600
O211        O  0.41157306  0.24897041  0.61628764    -0.75100
O212        O  0.38596819  0.28248988  0.62927667    -0.78600
O213        O  0.42084937  0.28614677  0.72735264    -0.79200
C214        C  0.39313903  0.26572577  0.61185989     0.96000
O215        O  0.37520338  0.23790348  0.66610617    -0.77200
O216        O  0.46567030  0.26794064  0.63115992    -0.82400
C217        C  0.47292003  0.23135087  0.69707938     0.98600
C218        C  0.48127787  0.28371647  0.64353656     1.04600
O219        O  0.46411949  0.25120602  0.71023812    -0.78000
C220        C  0.38728235  0.21556743  0.66579938     1.02900
Fe221      Fe  0.60150778  0.73401058  0.31262362     1.65800
Fe222      Fe  0.53722464  0.72292055  0.29327756     1.73200
Fe223      Fe  0.55102276  0.76996817  0.34104426     1.54400
O224        O  0.57757597  0.75922286  0.37058279    -0.81800
O225        O  0.51859940  0.75801985  0.28100681    -0.80100
O226        O  0.60727517  0.73124064  0.35320771    -0.84300
O227        O  0.61220697  0.77351584  0.31265269    -0.79100
O228        O  0.52270267  0.74506732  0.35792643    -0.80900
O229        O  0.56058250  0.72394381  0.25911321    -0.83700
C230        C  0.60113783  0.79587483  0.31697377     0.97100
C231        C  0.59784074  0.74420278  0.37279597     1.04500
O232        O  0.56322117  0.74218658  0.31569951    -1.12600
O233        O  0.55275098  0.68553965  0.30262998    -0.75100
O234        O  0.59554247  0.69344400  0.31136320    -0.78600
O235        O  0.57770703  0.79794157  0.32645846    -0.79200
C236        C  0.57631387  0.67748741  0.30740223     0.96000
O237        O  0.60134930  0.73578319  0.27178262    -0.77200
O238        O  0.51046713  0.71871211  0.32431437    -0.82400
C239        C  0.51320830  0.77982366  0.29293438     0.98600
C240        C  0.50755622  0.72738955  0.34790189     1.04600
O241        O  0.52292752  0.78542954  0.31550340    -0.78000
C242        C  0.58475872  0.72946832  0.25393080     1.02900
Fe243      Fe  0.26600648  0.68596060  0.38048087     1.65800
Fe244      Fe  0.22839395  0.66676179  0.43250276     1.73200
Fe245      Fe  0.27408526  0.71567111  0.44104914     1.54400
O246        O  0.31183956  0.70365632  0.42894853    -0.81800
O247        O  0.21567225  0.69380376  0.46072426    -0.80100
O248        O  0.30632148  0.68889826  0.38754481    -0.84300
O249        O  0.26337043  0.72624198  0.37450100    -0.79100
O250        O  0.27609836  0.68820646  0.47187428    -0.80900
O251        O  0.20131634  0.68273155  0.40616733    -0.83700
C252        C  0.26862192  0.74687155  0.38809123     0.97100
C253        C  0.32119548  0.69534880  0.40688918     1.04500
O254        O  0.25645717  0.68951525  0.41799821    -1.12600
O255        O  0.23487019  0.63519112  0.40642986    -0.75100
O256        O  0.26975358  0.64501281  0.38154117    -0.78600
O257        O  0.27394626  0.74576167  0.41274953    -0.79200
C258        C  0.25165606  0.62890273  0.38856316     0.96000
O259        O  0.22644698  0.68311806  0.36929312    -0.77200
O260        O  0.25474749  0.65088496  0.45972406    -0.82400
C261        C  0.21914995  0.71828936  0.46585331     0.98600
C262        C  0.26966953  0.66387040  0.47566743     1.04600
O263        O  0.23846935  0.73116981  0.45584116    -0.78000
C264        C  0.20405183  0.68522999  0.38114534     1.02900
Fe265      Fe  0.81766893  0.60956137  0.78163921     1.65800
Fe266      Fe  0.84446845  0.56164406  0.74213310     1.73200
Fe267      Fe  0.79510325  0.54686941  0.78696329     1.54400
O268        O  0.80083624  0.56412939  0.82447098    -0.81800
O269        O  0.81607303  0.54019275  0.72186014    -0.80100
O270        O  0.82774277  0.59935516  0.81986775    -0.84300
O271        O  0.77792234  0.60886492  0.79269802    -0.79100
O272        O  0.82567943  0.52107455  0.79451675    -0.80900
O273        O  0.83424411  0.59483387  0.71881166    -0.83700
C274        C  0.75842343  0.59328180  0.78909624     0.97100
C275        C  0.81498587  0.58288424  0.83433849     1.04500
O276        O  0.81932960  0.57239581  0.77022291    -1.12600
O277        O  0.87673947  0.58166476  0.75814146    -0.75100
O278        O  0.85688041  0.61818824  0.77272089    -0.78600
O279        O  0.76165231  0.56974230  0.78066799    -0.79200
C280        C  0.87759122  0.60599153  0.76488524     0.96000
O281        O  0.80706825  0.62032887  0.74384403    -0.77200
O282        O  0.85634254  0.52740663  0.76271635    -0.82400
C283        C  0.79563973  0.52680473  0.72837658     0.98600
C284        C  0.84702773  0.51450415  0.78253592     1.04600
O285        O  0.78629075  0.52685965  0.75188550    -0.78000
C286        C  0.81752704  0.61395162  0.72160127     1.02900
Fe287      Fe  0.88528600  0.27623076  0.81924049     1.65800
Fe288      Fe  0.94883337  0.28376066  0.79893660     1.73200
Fe289      Fe  0.93296130  0.23481664  0.84352747     1.54400
O290        O  0.91132726  0.24810696  0.87649805    -0.81800
O291        O  0.97098757  0.25030712  0.78951468    -0.80100
O292        O  0.87659385  0.26786820  0.85817319    -0.84300
O293        O  0.87375591  0.23847648  0.80794463    -0.79100
O294        O  0.96592882  0.25538689  0.85827337    -0.80900
O295        O  0.92759072  0.27841047  0.76402150    -0.83700
C296        C  0.88094016  0.21542759  0.81564009     0.97100
C297        C  0.88820962  0.25831138  0.87822961     1.04500
O298        O  0.92248834  0.26476447  0.82069204    -1.12600
O299        O  0.93081310  0.32044194  0.80495199    -0.75100
O300        O  0.89481115  0.31473251  0.83027968    -0.78600
O301        O  0.90108146  0.21167811  0.83057005    -0.79200
C302        C  0.91157705  0.32973456  0.81867013     0.96000
O303        O  0.88708450  0.28689910  0.77987011    -0.77200
O304        O  0.97177644  0.29081012  0.83191137    -0.82400
C305        C  0.97075418  0.22586641  0.79580123     0.98600
C306        C  0.97742364  0.27732407  0.85246715     1.04600
O307        O  0.95577982  0.21678413  0.81402463    -0.78000
C308        C  0.90339933  0.28496689  0.76068109     1.02900
Fe309      Fe  0.76724446  0.67799981  0.11018125     1.65800
Fe310      Fe  0.77574299  0.70607263  0.04925016     1.73200
Fe311      Fe  0.73118733  0.65595078  0.05819857     1.54400
O312        O  0.73924640  0.62481530  0.08424489    -0.81800
O313        O  0.74001206  0.72001690  0.03389809    -0.80100
O314        O  0.77322870  0.63751485  0.10906642    -0.84300
O315        O  0.72753333  0.67338255  0.12145868    -0.79100
O316        O  0.75811723  0.64053355  0.03089304    -0.80900
O317        O  0.77408835  0.73682395  0.07710262    -0.83700
C318        C  0.70532087  0.67468701  0.10936545     0.97100
C319        C  0.75671010  0.61995439  0.10173919     1.04500
O320        O  0.75831624  0.68005168  0.07251565    -1.12600
O321        O  0.81365544  0.69561999  0.06183161    -0.75100
O322        O  0.80773443  0.68284924  0.10370406    -0.78600
O323        O  0.70321318  0.67132724  0.08440691    -0.79200
C324        C  0.82287243  0.68891139  0.08433508     0.96000
O325        O  0.76240799  0.71820739  0.11549585    -0.77200
O326        O  0.77922061  0.67799454  0.01892382    -0.82400
C327        C  0.72072091  0.70674187  0.02443110     0.98600
C328        C  0.77320266  0.65355068  0.01510873     1.04600
O329        O  0.71748158  0.68232107  0.02997548    -0.78000
C330        C  0.76770748  0.73855288  0.10154976     1.02900
Fe331      Fe  0.16982309  0.40002275  0.21088475     1.65800
Fe332      Fe  0.19059444  0.46385317  0.20398654     1.73200
Fe333      Fe  0.14616262  0.44761532  0.25321580     1.54400
O334        O  0.11242681  0.42761831  0.23899187    -0.81800
O335        O  0.20047998  0.48500339  0.23812322    -0.80100
O336        O  0.13013942  0.39274441  0.21829099    -0.84300
O337        O  0.17974323  0.38705657  0.24832329    -0.79100
O338        O  0.13333170  0.48274516  0.23475350    -0.80900
O339        O  0.22525782  0.44198612  0.20837806    -0.83700
C340        C  0.17170748  0.39365607  0.27143155     0.97100
C341        C  0.11016411  0.40477938  0.22804525     1.04500
O342        O  0.16870129  0.43728114  0.22273599    -1.12600
O343        O  0.18422553  0.44669243  0.16670970    -0.75100
O344        O  0.16022048  0.40989694  0.17247194    -0.78600
O345        O  0.15743841  0.41434740  0.27557004    -0.79200
C346        C  0.17130339  0.42692317  0.15742688     0.96000
O347        O  0.20978610  0.40104047  0.20134975    -0.77200
O348        O  0.15818102  0.48826531  0.19812346    -0.82400
C349        C  0.19459291  0.48395577  0.26267227     0.98600
C350        C  0.13940958  0.49546378  0.21361848     1.04600
O351        O  0.17666314  0.46843541  0.27155002    -0.78000
C352        C  0.22887894  0.41751455  0.20301369     1.02900
Fe353      Fe  0.10232939  0.73963922  0.17531435     1.65800
Fe354      Fe  0.05098466  0.77647347  0.14997965     1.73200
Fe355      Fe  0.03854791  0.72844841  0.19704189     1.54400
O356        O  0.05628641  0.69181795  0.18957243    -0.81800
O357        O  0.02649976  0.79337077  0.17824169    -0.80100
O358        O  0.09616084  0.69899626  0.17140561    -0.84300
O359        O  0.10285108  0.73661503  0.21614506    -0.79100
O360        O  0.01289802  0.72113615  0.16594611    -0.80900
O361        O  0.08058499  0.80326432  0.16121448    -0.83700
C362        C  0.08593914  0.73446354  0.23481350     0.97100
C363        C  0.07807289  0.68331395  0.17967980     1.04500
O364        O  0.06392376  0.74817074  0.17407379    -1.12600
O365        O  0.07362774  0.76400281  0.11794328    -0.75100
O366        O  0.10789766  0.74166964  0.13463909    -0.78600
O367        O  0.06105952  0.73300770  0.23086573    -0.79200
C368        C  0.09572235  0.75201676  0.11520522     0.96000
O369        O  0.11283622  0.77917450  0.17979017    -0.77200
O370        O  0.01968783  0.75324422  0.13606913    -0.82400
C371        C  0.01436932  0.78553357  0.19891413     0.98600
C372        C  0.00722083  0.73274945  0.14432323     1.04600
O373        O  0.01726650  0.76225942  0.20831782    -0.78000
C374        C  0.10301840  0.80139663  0.17275394     1.02900
Fe375      Fe  0.20996240  0.33273562  0.88132587     1.65800
Fe376      Fe  0.25322779  0.35652689  0.92783471     1.73200
Fe377      Fe  0.20802312  0.30804615  0.94372159     1.54400
O378        O  0.16976934  0.31313241  0.92899588    -0.81800
O379        O  0.27357589  0.32813554  0.94886760    -0.80100
O380        O  0.17153934  0.34014189  0.89406919    -0.84300
O381        O  0.20205425  0.29236293  0.88094936    -0.79100
O382        O  0.20108011  0.33905838  0.96984838    -0.80900
O383        O  0.27554251  0.34536714  0.89472710    -0.83700
C384        C  0.20619374  0.27245340  0.89581915     0.97100
C385        C  0.15836679  0.32690199  0.91118030     1.04500
O386        O  0.22386099  0.33261378  0.91771657    -1.12600
O387        O  0.23852869  0.38931191  0.90814796    -0.75100
O388        O  0.21578702  0.37279035  0.87430096    -0.78600
O389        O  0.21365318  0.27497962  0.91971488    -0.79200
C390        C  0.22748594  0.39195638  0.88576158     0.96000
O391        O  0.24738433  0.32524936  0.86649195    -0.77200
O392        O  0.23322604  0.36911545  0.96195607    -0.82400
C393        C  0.26713571  0.30775762  0.96212453     0.98600
C394        C  0.21328919  0.36062077  0.97529734     1.04600
O395        O  0.24355285  0.29869891  0.96232826    -0.78000
C396        C  0.27063869  0.33268263  0.87329917     1.02900
Fe397      Fe  0.60506084  0.77296664  0.81512790     1.65800
Fe398      Fe  0.55530731  0.73659694  0.84420287     1.73200
Fe399      Fe  0.54096179  0.78153528  0.79464545     1.54400
O400        O  0.55759691  0.81895763  0.80065943    -0.81800
O401        O  0.53113297  0.71730754  0.81720516    -0.80100
O402        O  0.59776501  0.81345053  0.81856688    -0.84300
O403        O  0.60472225  0.77520095  0.77454905    -0.79100
O404        O  0.51493105  0.78912293  0.82575144    -0.80900
O405        O  0.58538509  0.71010047  0.83346395    -0.83700
C406        C  0.58796475  0.77539001  0.75587696     0.97100
C407        C  0.57909618  0.82837286  0.81018634     1.04500
O408        O  0.56701564  0.76380059  0.81814652    -1.12600
O409        O  0.57830918  0.75152041  0.87505603    -0.75100
O410        O  0.61246598  0.77139178  0.85526375    -0.78600
O411        O  0.56308132  0.77620052  0.76015350    -0.79200
C412        C  0.60112916  0.76247254  0.87591330     0.96000
O413        O  0.61558110  0.73358276  0.81074870    -0.77200
O414        O  0.52341584  0.75946131  0.85758196    -0.82400
C415        C  0.51966882  0.72338683  0.79566190     0.98600
C416        C  0.50975030  0.77853191  0.84808585     1.04600
O417        O  0.52162257  0.74634096  0.78528001    -0.78000
C418        C  0.60659087  0.71166893  0.81960151     1.02900
Fe419      Fe  0.26973291  0.82137364  0.88374089     1.65800
Fe420      Fe  0.27802205  0.79976244  0.94688573     1.73200
Fe421      Fe  0.22833924  0.84414502  0.93262873     1.54400
O422        O  0.24071577  0.87768883  0.91207925    -0.81800
O423        O  0.24445110  0.78938828  0.96890463    -0.80100
O424        O  0.26208000  0.86127121  0.87688805    -0.84300
O425        O  0.23184259  0.81110662  0.87228728    -0.79100
O426        O  0.24864870  0.85788614  0.96616854    -0.80900
O427        O  0.27262051  0.76531410  0.92468674    -0.83700
C428        C  0.20868817  0.81768242  0.88025650     0.97100
C429        C  0.25132995  0.88052264  0.88931692     1.04500
O430        O  0.25875619  0.82203627  0.92119762    -1.12600
O431        O  0.31486255  0.80618804  0.92868010    -0.75100
O432        O  0.30870055  0.83075926  0.89250082    -0.78600
O433        O  0.20481131  0.83192472  0.90092960    -0.79200
C434        C  0.32395239  0.81922587  0.90895986     0.96000
O435        O  0.27907864  0.78141838  0.88399234    -0.77200
O436        O  0.28482497  0.83225062  0.97128506    -0.82400
C437        C  0.21988574  0.79540035  0.96840416     0.98600
C438        C  0.27027163  0.85195507  0.97808267     1.04600
O439        O  0.21094925  0.81388411  0.95392176    -0.78000
C440        C  0.27731149  0.76215114  0.90009332     1.02900
Fe441      Fe  0.67610621  0.10783215  0.77285265     1.65800
Fe442      Fe  0.69509434  0.04394387  0.78201144     1.73200
Fe443      Fe  0.65075473  0.05959526  0.73308951     1.54400
O444        O  0.61773634  0.08037708  0.74731068    -0.81800
O445        O  0.70424394  0.02131636  0.74833259    -0.80100
O446        O  0.63698014  0.11646956  0.76392265    -0.84300
O447        O  0.68758710  0.11820626  0.73489805    -0.79100
O448        O  0.63733336  0.02551470  0.75288812    -0.80900
O449        O  0.73033346  0.06470187  0.77616645    -0.83700
C450        C  0.67785475  0.11174000  0.71248190     0.97100
C451        C  0.61653669  0.10440049  0.75535722     1.04500
O452        O  0.67379982  0.07030348  0.76267414    -1.12600
O453        O  0.68919586  0.06301841  0.81860649    -0.75100
O454        O  0.66525942  0.09968438  0.81154683    -0.78600
O455        O  0.66199484  0.09207038  0.70969703    -0.79200
C456        C  0.67631181  0.08325152  0.82722190     0.96000
O457        O  0.71562526  0.10593011  0.78343248    -0.77200
O458        O  0.66195159  0.02084783  0.78948548    -0.82400
C459        C  0.69858963  0.02259633  0.72376315     0.98600
C460        C  0.64266842  0.01386445  0.77473386     1.04600
O461        O  0.68090010  0.03825521  0.71492326    -0.78000
C462        C  0.73433971  0.08908475  0.78156782     1.02900
Fe463      Fe  0.37974288  0.23817717  0.17026799     1.65800
Fe464      Fe  0.44258877  0.22838382  0.19342581     1.73200
Fe465      Fe  0.43117056  0.27482774  0.14456558     1.54400
O466        O  0.40798457  0.26308168  0.11267364    -0.81800
O467        O  0.46268979  0.26264813  0.20433321    -0.80100
O468        O  0.37388943  0.24102769  0.13004596    -0.84300
O469        O  0.36993277  0.27771456  0.17558392    -0.79100
O470        O  0.46143002  0.25038682  0.13053049    -0.80900
O471        O  0.41914383  0.23371936  0.22699406    -0.83700
C472        C  0.38036569  0.29993774  0.16931063     0.97100
C473        C  0.38556142  0.25169454  0.11045810     1.04500
O474        O  0.41790377  0.24705790  0.16926211    -1.12600
O475        O  0.42554320  0.19144298  0.18628713    -0.75100
O476        O  0.38670352  0.19767613  0.16592226    -0.78600
O477        O  0.40234721  0.30193077  0.15676044    -0.79200
C478        C  0.40458151  0.18242906  0.17535031     0.96000
O479        O  0.37826742  0.23443806  0.21059248    -0.77200
O480        O  0.46899929  0.22077091  0.16276099    -0.82400
C481        C  0.46650910  0.28537462  0.19404398     0.98600
C482        C  0.47407185  0.23061826  0.14005644     1.04600
O483        O  0.45620219  0.29194008  0.17211755    -0.78000
C484        C  0.39406261  0.23401221  0.23004967     1.02900
Fe485      Fe  0.70663729  0.18071288  0.10466229     1.65800
Fe486      Fe  0.75092977  0.15832600  0.05861072     1.73200
Fe487      Fe  0.70362987  0.20453553  0.04230917     1.54400
O488        O  0.66539961  0.19795120  0.05809125    -0.81800
O489        O  0.77047317  0.18807081  0.03877439    -0.80100
O490        O  0.66955044  0.16988403  0.09198370    -0.84300
O491        O  0.69557169  0.22055126  0.10451049    -0.79100
O492        O  0.69785463  0.17279151  0.01662812    -0.80900
O493        O  0.77195849  0.16959148  0.09269614    -0.83700
C494        C  0.70011277  0.24061596  0.08988836     0.97100
C495        C  0.65524051  0.18302454  0.07596886     1.04500
O496        O  0.72056163  0.18104733  0.06834702    -1.12600
O497        O  0.73637754  0.12471212  0.07711482    -0.75100
O498        O  0.71537038  0.14117962  0.11225912    -0.78600
O499        O  0.70828779  0.23815569  0.06609567    -0.79200
C500        C  0.72626825  0.12192484  0.10000673     0.96000
O501        O  0.74303824  0.19152075  0.11889839    -0.77200
O502        O  0.73251512  0.14554852  0.02365979    -0.82400
C503        C  0.76326133  0.20726216  0.02425968     0.98600
C504        C  0.71174866  0.15231706  0.01072254     1.04600
O505        O  0.73910259  0.21482153  0.02292057    -0.78000
C506        C  0.76647207  0.18359267  0.11328574     1.02900
Fe507      Fe  0.30785521  0.90464264  0.21134254     1.65800
Fe508      Fe  0.33592927  0.95103806  0.25086109     1.73200
Fe509      Fe  0.29248146  0.96893624  0.20207133     1.54400
O510        O  0.29801327  0.94879345  0.16561020    -0.81800
O511        O  0.30709655  0.97396624  0.26909716    -0.80100
O512        O  0.32169073  0.91210147  0.17370169    -0.84300
O513        O  0.26915948  0.90905469  0.19799621    -0.79100
O514        O  0.32675471  0.99015712  0.19471189    -0.80900
O515        O  0.32235912  0.91894741  0.27370957    -0.83700
C516        C  0.25099946  0.92640954  0.20084622     0.97100
C517        C  0.31095930  0.92824930  0.15754114     1.04500
O518        O  0.31234522  0.94180952  0.22141903    -1.12600
O519        O  0.36760006  0.92846132  0.23651581    -0.75100
O520        O  0.34559959  0.89277374  0.22308263    -0.78600
O521        O  0.25611455  0.95009218  0.20804539    -0.79200
C522        C  0.36692793  0.90375803  0.23093472     0.96000
O523        O  0.29338664  0.89642354  0.24846265    -0.77200
O524        O  0.35144220  0.98435001  0.23107913    -0.82400
C525        C  0.29005517  0.99042078  0.26044501     0.98600
C526        C  0.34658069  0.99614918  0.20917261     1.04600
O527        O  0.28439403  0.99217017  0.23585645    -0.78000
C528        C  0.30399367  0.90155500  0.27077009     1.02900
C529        C  0.37113448  0.11423942  0.17359321    -0.27700
C530        C  0.39196257  0.09748851  0.18164381     0.01900
C531        C  0.41753249  0.10835382  0.18524088     0.30000
C532        C  0.42168670  0.13582444  0.18174883    -0.19500
C533        C  0.40049291  0.15296518  0.17497103    -0.28900
C534        C  0.37509760  0.14167707  0.17044621     0.44000
C535        C  0.38585250  0.06915130  0.18759392     0.05200
O536        O  0.43858893  0.09221053  0.19176587    -0.57400
H537        H  0.44147976  0.14378313  0.18502427     0.18100
O538        O  0.35368114  0.15729012  0.16388007    -0.64100
H539        H  0.35131632  0.10613798  0.17077592     0.16600
C540        C  0.38797127  0.05914618  0.21363583     0.28800
C541        C  0.37702669  0.03420936  0.22000169    -0.25000
C542        C  0.36342568  0.01908687  0.20077526    -0.24300
C543        C  0.36318579  0.02831616  0.17425071     0.40300
C544        C  0.37415503  0.05317213  0.16794533    -0.26800
O545        O  0.39897482  0.07436823  0.23344347    -0.58700
H546        H  0.37754161  0.02763907  0.24047284     0.15900
O547        O  0.35107137  0.01388483  0.15450627    -0.60100
H548        H  0.37248174  0.06055319  0.14781173     0.14400
H549        H  0.34488286  0.16175078  0.18103204     0.46200
H550        H  0.38407751  0.08529615  0.24058964     0.41600
H551        H  0.36448923  0.00046652  0.14882845     0.45100
H552        H  0.44301229  0.09678927  0.21041296     0.36500
C553        C  0.58127210  0.19721461  0.06776899    -0.27700
C554        C  0.57176371  0.19173473  0.09348562     0.01900
C555        C  0.58917283  0.18005298  0.11199867     0.30000
C556        C  0.61579848  0.17539704  0.10515424    -0.19500
C557        C  0.62590892  0.18283525  0.08012810    -0.28900
C558        C  0.60810168  0.19301883  0.06105899     0.44000
C559        C  0.54467972  0.20060181  0.10179189     0.05200
O560        O  0.58085341  0.17461880  0.13742232    -0.57400
H561        H  0.62894075  0.16755031  0.12025094     0.18100
O562        O  0.61683684  0.20000975  0.03618482    -0.64100
H563        H  0.56804379  0.20567953  0.05309309     0.16600
C564        C  0.53673211  0.22735845  0.09843179     0.28800
C565        C  0.51281583  0.23644116  0.10967537    -0.25000
C566        C  0.49665178  0.21932672  0.12473355    -0.24300
C567        C  0.50387313  0.19222868  0.12694776     0.40300
C568        C  0.52762915  0.18304762  0.11539688    -0.26800
O569        O  0.55331830  0.24536473  0.08626156    -0.58700
H570        H  0.50775465  0.25737509  0.10795510     0.15900
O571        O  0.48830901  0.17472098  0.14103644    -0.60100
H572        H  0.53318837  0.16231737  0.11780740     0.14400
H573        H  0.61678218  0.18319183  0.02576294     0.46200
H574        H  0.54533313  0.24859954  0.06858357     0.41600
H575        H  0.47420349  0.16898215  0.12852072     0.45100
H576        H  0.58365475  0.19140557  0.14752135     0.36500
C577        C  0.67005164  0.11947406  0.89372479    -0.27700
C578        C  0.68414036  0.10236693  0.91064198     0.01900
C579        C  0.69263268  0.07743562  0.90073760     0.30000
C580        C  0.68849954  0.07078782  0.87391564    -0.19500
C581        C  0.67593623  0.08868747  0.85644762    -0.28900
C582        C  0.66577498  0.11283757  0.86702159     0.44000
C583        C  0.69088941  0.11170145  0.93797697     0.05200
O584        O  0.70454664  0.05930297  0.91726366    -0.57400
H585        H  0.69595318  0.05182309  0.86665134     0.18100
O586        O  0.65286341  0.13088524  0.85123008    -0.64100
H587        H  0.66318173  0.13866591  0.90099001     0.16600
C588        C  0.71755362  0.11247120  0.94680769     0.28800
C589        C  0.72381257  0.12431077  0.97127573    -0.25000
C590        C  0.70397044  0.13638687  0.98702401    -0.24300
C591        C  0.67719334  0.13487019  0.97861396     0.40300
C592        C  0.67087841  0.12261948  0.95435962    -0.26800
O593        O  0.73791287  0.10318606  0.93100936    -0.58700
H594        H  0.74452587  0.12542299  0.97717988     0.15900
O595        O  0.65705314  0.14584764  0.99360792    -0.60100
H596        H  0.65028479  0.12224560  0.94797328     0.14400
H597        H  0.63372065  0.12609440  0.85253688     0.46200
H598        H  0.74242649  0.11818862  0.91902144     0.41600
H599        H  0.65265523  0.13219902  0.00715466     0.45100
H600        H  0.72286897  0.05672739  0.91018444     0.36500
C601        C  0.26764240  0.89064845  0.04313927    -0.27700
C602        C  0.29480958  0.89347509  0.04916798     0.01900
C603        C  0.31392068  0.88384790  0.03087022     0.30000
C604        C  0.30573832  0.87103769  0.00744898    -0.19500
C605        C  0.27851592  0.86792403  0.00158048    -0.28900
C606        C  0.25944180  0.87821410  0.01957805     0.44000
C607        C  0.30266525  0.90471259  0.07543295     0.05200
O608        O  0.34064409  0.88643723  0.03588955    -0.57400
H609        H  0.32074907  0.86325977  0.99393586     0.18100
O610        O  0.23271428  0.87443756  0.01535742    -0.64100
H611        H  0.25262388  0.89726248  0.05723458     0.16600
C612        C  0.29251430  0.92932486  0.08449199     0.28800
C613        C  0.29703790  0.93770187  0.11072054    -0.25000
C614        C  0.31143509  0.92170787  0.12855549    -0.24300
C615        C  0.32317770  0.89789094  0.11877223     0.40300
C616        C  0.31860949  0.88958981  0.09255923    -0.26800
O617        O  0.27806685  0.94529716  0.06780140    -0.58700
H618        H  0.28814813  0.95626666  0.11737067     0.15900
O619        O  0.33789843  0.88167410  0.13496311    -0.60100
H620        H  0.32656654  0.87057183  0.08598317     0.14400
H621        H  0.22630351  0.89139535  0.00761337     0.46200
H622        H  0.25933981  0.94396012  0.07406308     0.41600
H623        H  0.35648127  0.88821587  0.13328585     0.45100
H624        H  0.34523208  0.90485292  0.03037637     0.36500
C625        C  0.57204056  0.90235344  0.79404420    -0.27700
C626        C  0.59632944  0.91248175  0.80336319     0.01900
C627        C  0.61343464  0.89549029  0.81758557     0.30000
C628        C  0.60686293  0.86855154  0.82095344    -0.19500
C629        C  0.58327813  0.85786895  0.81021411    -0.28900
C630        C  0.56536011  0.87543473  0.79744201     0.44000
C631        C  0.60475847  0.94001045  0.79627568     0.05200
O632        O  0.63727375  0.90469003  0.82720698    -0.57400
H633        H  0.62090933  0.85578498  0.83111168     0.18100
O634        O  0.54188337  0.86637353  0.78688991    -0.64100
H635        H  0.55846698  0.91524965  0.78341454     0.16600
C636        C  0.60669411  0.94779437  0.76944877     0.28800
C637        C  0.61760855  0.97263301  0.76281076    -0.25000
C638        C  0.62695110  0.99005632  0.78259222    -0.24300
C639        C  0.62374491  0.98281590  0.80950968     0.40300
C640        C  0.61275432  0.95798963  0.81614662    -0.26800
O641        O  0.60001655  0.93036813  0.74948563    -0.58700
H642        H  0.62014746  0.97759309  0.74201582     0.15900
O643        O  0.63196222  0.99951719  0.82949452    -0.60100
H644        H  0.61108224  0.95246548  0.83687945     0.14400
H645        H  0.52848067  0.86861390  0.80128464     0.46200
H646        H  0.58247621  0.93658084  0.74295549     0.41600
H647        H  0.61676167  0.01180687  0.83266486     0.45100
H648        H  0.65008910  0.90274081  0.81225941     0.36500
C649        C  0.44459372  0.77831122  0.88680538    -0.27700
C650        C  0.43559009  0.80452707  0.88297257     0.01900
C651        C  0.45253972  0.82295144  0.87026955     0.30000
C652        C  0.47733684  0.81459911  0.86017296    -0.19500
C653        C  0.48574249  0.78797892  0.86272034    -0.28900
C654        C  0.46934319  0.76994886  0.87675918     0.44000
C655        C  0.40775863  0.81161971  0.89056291     0.05200
O656        O  0.44510153  0.84919379  0.86797260    -0.57400
H657        H  0.48977313  0.82886374  0.84977839     0.18100
O658        O  0.47655820  0.74370744  0.87946882    -0.64100
H659        H  0.43180372  0.76387816  0.89652271     0.16600
C660        C  0.38957272  0.82073668  0.87136625     0.28800
C661        C  0.36277048  0.82480802  0.87815436    -0.25000
C662        C  0.35324742  0.81924389  0.90388162    -0.24300
C663        C  0.37167204  0.81076993  0.92329504     0.40300
C664        C  0.39857357  0.80696289  0.91652219    -0.26800
O665        O  0.39743268  0.82430566  0.84548127    -0.58700
H666        H  0.34913138  0.83094437  0.86271485     0.15900
O667        O  0.36355065  0.80528207  0.94875189    -0.60100
H668        H  0.41225153  0.79980189  0.93148763     0.14400
H669        H  0.46936578  0.73455749  0.86353064     0.46200
H670        H  0.39574768  0.80649530  0.83700804     0.41600
H671        H  0.36354362  0.82273782  0.95807512     0.45100
H672        H  0.44287331  0.85235944  0.84867465     0.36500
C673        C  0.36840036  0.26588240  0.03818239    -0.27700
C674        C  0.34040554  0.26505793  0.03924189     0.01900
C675        C  0.32782299  0.25705556  0.06296887     0.30000
C676        C  0.34303198  0.25079699  0.08526178    -0.19500
C677        C  0.37100000  0.25300870  0.08481518    -0.28900
C678        C  0.38369122  0.25993955  0.06070116     0.44000
C679        C  0.32416973  0.27448439  0.01649791     0.05200
O680        O  0.30054073  0.25674162  0.06508889    -0.57400
H681        H  0.33263101  0.24579883  0.10349115     0.18100
O682        O  0.41091735  0.26184268  0.05910041    -0.64100
H683        H  0.37840699  0.27178665  0.02000942     0.16600
C684        C  0.32750678  0.30042423  0.00636737     0.28800
C685        C  0.30958676  0.31040281  0.98763817    -0.25000
C686        C  0.28775964  0.29508445  0.97899405    -0.24300
C687        C  0.28522450  0.26864250  0.98815874     0.40300
C688        C  0.30335627  0.25856460  0.00668498    -0.26800
O689        O  0.34735838  0.31673531  0.01567364    -0.58700
H690        H  0.31205440  0.33076533  0.98092913     0.15900
O691        O  0.26474140  0.25266581  0.97971711    -0.60100
H692        H  0.30068191  0.23845940  0.01404756     0.14400
H693        H  0.41712429  0.24363355  0.05441082     0.46200
H694        H  0.33958410  0.32588941  0.03141007     0.41600
H695        H  0.27154594  0.24377599  0.96340161     0.45100
H696        H  0.29545936  0.27523374  0.07007467     0.36500
C697        C  0.13557922  0.86962658  0.16470270    -0.27700
C698        C  0.15401870  0.86942236  0.18559575     0.01900
C699        C  0.15426022  0.84766520  0.20318093     0.30000
C700        C  0.13684355  0.82621539  0.19933803    -0.19500
C701        C  0.11891754  0.82587034  0.17795371    -0.28900
C702        C  0.11807259  0.84811293  0.16082105     0.44000
C703        C  0.17566038  0.88955456  0.18683071     0.05200
O704        O  0.17241108  0.84656781  0.22345169    -0.57400
H705        H  0.13788002  0.80942000  0.21278350     0.18100
O706        O  0.10121458  0.84848391  0.13945571    -0.64100
H707        H  0.13548320  0.88604754  0.15077088     0.16600
C708        C  0.19553217  0.88968001  0.16700910     0.28800
C709        C  0.21924609  0.90366769  0.17111412    -0.25000
C710        C  0.22351705  0.91796466  0.19473554    -0.24300
C711        C  0.20274567  0.91990912  0.21354921     0.40300
C712        C  0.17901407  0.90551832  0.20962206    -0.26800
O713        O  0.19278765  0.87458875  0.14439248    -0.58700
H714        H  0.23501843  0.90213664  0.15637733     0.15900
O715        O  0.20614773  0.93422131  0.23655802    -0.60100
H716        H  0.16384045  0.90562741  0.22501679     0.14400
H717        H  0.11132267  0.83986796  0.12475788     0.46200
H718        H  0.20032059  0.85688367  0.14885026     0.41600
H719        H  0.21191563  0.92101039  0.24995746     0.45100
H720        H  0.18861434  0.83837924  0.21550335     0.36500
C721        C  0.12197241  0.77513020  0.04841396    -0.27700
C722        C  0.14175716  0.75601743  0.04300772     0.01900
C723        C  0.14381985  0.73364967  0.05975973     0.30000
C724        C  0.12768983  0.73173176  0.08251293    -0.19500
C725        C  0.10887260  0.75163758  0.08869663    -0.28900
C726        C  0.10544801  0.77296376  0.07078056     0.44000
C727        C  0.16199371  0.76155641  0.02199608     0.05200
O728        O  0.16227833  0.71408876  0.05465973    -0.57400
H729        H  0.13050392  0.71503481  0.09581337     0.18100
O730        O  0.08781666  0.79320726  0.07619596    -0.64100
H731        H  0.12032748  0.79275120  0.03615024     0.16600
C732        C  0.15444922  0.76999109  0.99644259     0.28800
C733        C  0.17372962  0.77971305  0.97868390    -0.25000
C734        C  0.20074164  0.78117524  0.98591399    -0.24300
C735        C  0.20847007  0.77116388  0.01086328     0.40300
C736        C  0.18918241  0.76153964  0.02863057    -0.26800
O737        O  0.12827905  0.76871607  0.98868565    -0.58700
H738        H  0.16738980  0.78677569  0.95939773     0.15900
O739        O  0.23459020  0.77205676  0.01874864    -0.60100
H740        H  0.19540231  0.75545394  0.04827734     0.14400
H741        H  0.07138822  0.78844643  0.06638356     0.46200
H742        H  0.12225494  0.78749604  0.98721028     0.41600
H743        H  0.23663569  0.78950304  0.02785650     0.45100
H744        H  0.15328194  0.70149984  0.04238302     0.36500
C745        C  0.18609148  0.43318811  0.08334093    -0.27700
C746        C  0.17860796  0.40783668  0.07416038     0.01900
C747        C  0.16592589  0.39013520  0.09178977     0.30000
C748        C  0.16206706  0.39741084  0.11841674    -0.19500
C749        C  0.17086791  0.42224245  0.12814873    -0.28900
C750        C  0.18216054  0.44055674  0.10997643     0.44000
C751        C  0.18674447  0.39889163  0.04717217     0.05200
O752        O  0.15954234  0.36473553  0.08380594    -0.57400
H753        H  0.15350202  0.38280883  0.13177056     0.18100
O754        O  0.19068391  0.46521272  0.11817976    -0.64100
H755        H  0.19581599  0.44703578  0.06995550     0.16600
C756        C  0.16812009  0.38854768  0.02899068     0.28800
C757        C  0.17692853  0.37686088  0.00520699    -0.25000
C758        C  0.20422798  0.37583929  0.99886706    -0.24300
C759        C  0.22273130  0.38738164  0.01646158     0.40300
C760        C  0.21391790  0.39885359  0.04033684    -0.26800
O761        O  0.14133477  0.38920701  0.03454505    -0.58700
H762        H  0.16240751  0.36822160  0.99182828     0.15900
O763        O  0.24958125  0.38623672  0.01125199    -0.60100
H764        H  0.22850003  0.40664986  0.05414664     0.14400
H765        H  0.17511857  0.47715208  0.11581991     0.46200
H766        H  0.13550677  0.40748136  0.02982492     0.41600
H767        H  0.25555855  0.36888135  0.01854904     0.45100
H768        H  0.13979724  0.36432592  0.08301506     0.36500
C769        C  0.11183815  0.61562551  0.17028745    -0.27700
C770        C  0.09667177  0.59955453  0.18748391     0.01900
C771        C  0.07375864  0.61052182  0.19956600     0.30000
C772        C  0.06720844  0.63736524  0.19564805    -0.19500
C773        C  0.08316915  0.65397573  0.17963240    -0.28900
C774        C  0.10524684  0.64253312  0.16623589     0.44000
C775        C  0.10567036  0.57197411  0.19393273     0.05200
O776        O  0.05794354  0.59533003  0.21586227    -0.57400
H777        H  0.05005907  0.64540176  0.20611225     0.18100
O778        O  0.12063150  0.65742227  0.14924713    -0.64100
H779        H  0.12950102  0.60760941  0.16070999     0.16600
C780        C  0.11195182  0.55332864  0.17383928     0.28800
C781        C  0.12167260  0.52798264  0.18055686    -0.25000
C782        C  0.12534492  0.52068932  0.20723763    -0.24300
C783        C  0.11873238  0.53924491  0.22735445     0.40300
C784        C  0.10895536  0.56453253  0.22063144    -0.26800
O785        O  0.10811913  0.55951543  0.14760406    -0.58700
H786        H  0.12678245  0.51410113  0.16478150     0.15900
O787        O  0.12300552  0.53341946  0.25360439    -0.60100
H788        H  0.10473971  0.57873391  0.23638173     0.14400
H789        H  0.13664678  0.66241310  0.15959077     0.46200
H790        H  0.12624382  0.56200377  0.14003294     0.41600
H791        H  0.14147762  0.53944180  0.25725683     0.45100
H792        H  0.04582312  0.58555037  0.20375113     0.36500
C793        C  0.30321069  0.40328017  0.20744487    -0.27700
C794        C  0.30565133  0.38266833  0.18863707     0.01900
C795        C  0.28336203  0.37496923  0.17368962     0.30000
C796        C  0.25877266  0.38707259  0.17828147    -0.19500
C797        C  0.25592946  0.40725746  0.19749496    -0.28900
C798        C  0.27853331  0.41593255  0.21163095     0.44000
C799        C  0.33007969  0.36644949  0.18675425     0.05200
O800        O  0.28504209  0.35424295  0.15587292    -0.57400
H801        H  0.24167762  0.38025953  0.16705270     0.18100
O802        O  0.27632479  0.43530825  0.23081025    -0.64100
H803        H  0.32023115  0.40901577  0.21933048     0.16600
C804        C  0.34562902  0.36633394  0.16339935     0.28800
C805        C  0.36354308  0.34541440  0.15858105    -0.25000
C806        C  0.36579328  0.32438830  0.17677477    -0.24300
C807        C  0.35198390  0.32589900  0.20120566     0.40300
C808        C  0.33428642  0.34687907  0.20605167    -0.26800
O809        O  0.34182778  0.38534406  0.14427302    -0.58700
H810        H  0.37422898  0.34466475  0.13982918     0.15900
O811        O  0.35451601  0.30618116  0.21985435    -0.60100
H812        H  0.32233323  0.34676924  0.22405120     0.14400
H813        H  0.28135607  0.45213989  0.22180913     0.46200
H814        H  0.35319337  0.40057320  0.14971786     0.41600
H815        H  0.37088705  0.31072723  0.22986607     0.45100
H816        H  0.28814860  0.36274609  0.13837797     0.36500
C817        C  0.89066445  0.68666163  0.11822952    -0.27700
C818        C  0.90710396  0.69893704  0.09925073     0.01900
C819        C  0.89642969  0.70493590  0.07413040     0.30000
C820        C  0.86930268  0.70022802  0.06900109    -0.19500
C821        C  0.85232761  0.68958440  0.08866906    -0.28900
C822        C  0.86368538  0.68182003  0.11314037     0.44000
C823        C  0.93468641  0.70678731  0.10687693     0.05200
O824        O  0.91249084  0.71499773  0.05440048    -0.57400
H825        H  0.86142511  0.70578817  0.04980467     0.18100
O826        O  0.84848247  0.67044260  0.13277638    -0.64100
H827        H  0.89854694  0.68168438  0.13759645     0.16600
C828        C  0.94313701  0.73357020  0.10517159     0.28800
C829        C  0.96773548  0.74129407  0.11576077    -0.25000
C830        C  0.98397480  0.72288723  0.12903939    -0.24300
C831        C  0.97599090  0.69590521  0.12995969     0.40300
C832        C  0.95159834  0.68807283  0.11890770    -0.26800
O833        O  0.92675840  0.75276698  0.09482249    -0.58700
H834        H  0.97325739  0.76217541  0.11512940     0.15900
O835        O  0.99143892  0.67715415  0.14234577    -0.60100
H836        H  0.94545240  0.66742074  0.12048339     0.14400
H837        H  0.84934686  0.65097568  0.12929719     0.46200
H838        H  0.91563509  0.75899684  0.10996955     0.41600
H839        H  0.00462251  0.67135927  0.12874688     0.45100
H840        H  0.90546438  0.73305619  0.05052572     0.36500
C841        C  0.68406068  0.75699836  0.98043015    -0.27700
C842        C  0.66496685  0.74054183  0.96821648     0.01900
C843        C  0.66419506  0.71331577  0.97494851     0.30000
C844        C  0.68208880  0.70304230  0.99352260    -0.19500
C845        C  0.70134723  0.71931334  0.00579764    -0.28900
C846        C  0.70204116  0.74667705  0.99914232     0.44000
C847        C  0.64736990  0.75115798  0.94691744     0.05200
O848        O  0.64731506  0.69613970  0.96199689    -0.57400
H849        H  0.68118777  0.68189236  0.99774375     0.18100
O850        O  0.72052614  0.76343567  0.01023388    -0.64100
H851        H  0.68514932  0.77793578  0.97529622     0.16600
C852        C  0.61963799  0.74652416  0.94710660     0.28800
C853        C  0.60438005  0.75200821  0.92451513    -0.25000
C854        C  0.61616780  0.76272764  0.90148543    -0.24300
C855        C  0.64348526  0.76994088  0.90244432     0.40300
C856        C  0.65874166  0.76408940  0.92496554    -0.26800
O857        O  0.60736669  0.73567230  0.96893627    -0.58700
H858        H  0.58343561  0.74676250  0.92471334     0.15900
O859        O  0.65588335  0.78169340  0.88113164    -0.60100
H860        H  0.67992086  0.76833276  0.92461753     0.14400
H861        H  0.71157427  0.77121686  0.02607296     0.46200
H862        H  0.60452922  0.75082148  0.98134669     0.41600
H863        H  0.66526996  0.76699586  0.87172226     0.45100
H864        H  0.63448507  0.68987967  0.97568739     0.36500
C865        C  0.02810866  0.32379873  0.88330913    -0.27700
C866        C  0.04707737  0.30557329  0.89261644     0.01900
C867        C  0.04087039  0.27811082  0.89245747     0.30000
C868        C  0.01699719  0.26919670  0.88114488    -0.19500
C869        C  0.99927333  0.28730761  0.86945480    -0.28900
C870        C  0.00449458  0.31488144  0.87157142     0.44000
C871        C  0.07427274  0.31496706  0.89953324     0.05200
O872        O  0.05869932  0.25966855  0.90178176    -0.57400
H873        H  0.01327280  0.24794580  0.87986740     0.18100
O874        O  0.98672185  0.33326212  0.86198848    -0.64100
H875        H  0.03215122  0.34501082  0.88407033     0.16600
C876        C  0.08944063  0.32977581  0.88111488     0.28800
C877        C  0.11637894  0.33501499  0.88598561    -0.25000
C878        C  0.12879728  0.32571453  0.90914579    -0.24300
C879        C  0.11301713  0.31250591  0.92843647     0.40300
C880        C  0.08607985  0.30721482  0.92348329    -0.26800
O881        O  0.07875912  0.33720916  0.85721568    -0.58700
H882        H  0.12786690  0.34515037  0.87079597     0.15900
O883        O  0.12389313  0.30349390  0.95168058    -0.60100
H884        H  0.07456846  0.29623886  0.93806654     0.14400
H885        H  0.99445008  0.33946181  0.84491491     0.46200
H886        H  0.07515062  0.35659173  0.85896027     0.41600
H887        H  0.12260367  0.31875985  0.96419583     0.45100
H888        H  0.07060884  0.25558910  0.88652294     0.36500
C889        C  0.82853291  0.17246938  0.78190278    -0.27700
C890        C  0.82918157  0.14948805  0.79765150     0.01900
C891        C  0.84873561  0.14708431  0.81740179     0.30000
C892        C  0.86640073  0.16819800  0.82216504    -0.19500
C893        C  0.86460582  0.19206491  0.80766663    -0.28900
C894        C  0.84608388  0.19360620  0.78664281     0.44000
C895        C  0.80755996  0.12963364  0.79497693     0.05200
O896        O  0.85065526  0.12413391  0.83205502    -0.57400
H897        H  0.88079035  0.16621830  0.83801187     0.18100
O898        O  0.84438278  0.21590551  0.77103884    -0.64100
H899        H  0.81363520  0.17446272  0.76651328     0.16600
C900        C  0.78899037  0.12627311  0.81575271     0.28800
C901        C  0.76599851  0.11116915  0.81152600    -0.25000
C902        C  0.76130534  0.09899459  0.78687844    -0.24300
C903        C  0.78043254  0.10115636  0.76650637     0.40300
C904        C  0.80342267  0.11653208  0.77060552    -0.26800
O905        O  0.79184455  0.13984884  0.83929960    -0.58700
H906        H  0.75105402  0.11011457  0.82713123     0.15900
O907        O  0.77601100  0.08982291  0.74208195    -0.60100
H908        H  0.81747815  0.11918507  0.75441607     0.14400
H909        H  0.85771042  0.21308297  0.75657492     0.46200
H910        H  0.79570747  0.12600841  0.85277459     0.41600
H911        H  0.76608164  0.10346284  0.73189165     0.45100
H912        H  0.84579983  0.12925913  0.85050502     0.36500
C913        C  0.80160071  0.25671287  0.98096386    -0.27700
C914        C  0.82240762  0.24046285  0.97118661     0.01900
C915        C  0.82433561  0.21404507  0.98044384     0.30000
C916        C  0.80555712  0.20416182  0.99848316    -0.19500
C917        C  0.78400680  0.21988348  0.00726979    -0.28900
C918        C  0.78240715  0.24657360  0.99870840     0.44000
C919        C  0.84023915  0.24982521  0.94928303     0.05200
O920        O  0.84372574  0.19716580  0.97094763    -0.57400
H921        H  0.80722141  0.18354109  0.00463142     0.18100
O922        O  0.76206401  0.26281100  0.00723120    -0.64100
H923        H  0.79986075  0.27716000  0.97431931     0.16600
C924        C  0.82931428  0.25994766  0.92566733     0.28800
C925        C  0.84559790  0.26415812  0.90346129    -0.25000
C926        C  0.87301687  0.25799754  0.90383826    -0.24300
C927        C  0.88432670  0.24965352  0.92805858     0.40300
C928        C  0.86798649  0.24570261  0.95048186    -0.26800
O929        O  0.80240673  0.26424766  0.92343623    -0.58700
H930        H  0.83620607  0.27090844  0.88535782     0.15900
O931        O  0.91105069  0.24425974  0.92985958    -0.60100
H932        H  0.87689347  0.23840131  0.96862039     0.14400
H933        H  0.76799930  0.26996085  0.02462720     0.46200
H934        H  0.79486190  0.24690369  0.91767112     0.41600
H935        H  0.91945580  0.26153314  0.93457026     0.45100
H936        H  0.83619614  0.18922041  0.95454088     0.36500
C937        C  0.79831838  0.64255948  0.94462767    -0.27700
C938        C  0.80035463  0.61472413  0.94330371     0.01900
C939        C  0.79449012  0.59954602  0.96609748     0.30000
C940        C  0.78615503  0.61234604  0.98961079    -0.19500
C941        C  0.78356791  0.64026801  0.99074380    -0.28900
C942        C  0.79006013  0.65534378  0.96794571     0.44000
C943        C  0.80678298  0.60223670  0.91727756     0.05200
O944        O  0.79749155  0.57233710  0.96569925    -0.57400
H945        H  0.78160758  0.60038539  0.00693318     0.18100
O946        O  0.78682650  0.68251365  0.96762567    -0.64100
H947        H  0.80232722  0.65447559  0.92713355     0.16600
C948        C  0.78833592  0.58533538  0.90464794     0.28800
C949        C  0.79244417  0.57754704  0.87822251    -0.25000
C950        C  0.81446758  0.58697423  0.86359547    -0.24300
C951        C  0.83360451  0.60286834  0.87668469     0.40300
C952        C  0.82964748  0.61035797  0.90326690    -0.26800
O953        O  0.76523566  0.57786862  0.91727683    -0.58700
H954        H  0.77727948  0.56555739  0.86865655     0.15900
O955        O  0.85563867  0.61219696  0.86343421    -0.60100
H956        H  0.84395001  0.62349164  0.91268258     0.14400
H957        H  0.80487409  0.68993781  0.97068219     0.46200
H958        H  0.75249568  0.59264679  0.91411534     0.41600
H959        H  0.86935014  0.59812745  0.86556494     0.45100
H960        H  0.77923042  0.56494897  0.96742987     0.36500
C961        C  0.89877133  0.46084001  0.79724889    -0.27700
C962        C  0.88245281  0.44026904  0.80724046     0.01900
C963        C  0.85484988  0.44496126  0.80985259     0.30000
C964        C  0.84411508  0.46949543  0.80250782    -0.19500
C965        C  0.86018408  0.48969225  0.79160173    -0.28900
C966        C  0.88779189  0.48522047  0.78906899     0.44000
C967        C  0.89366073  0.41329469  0.81267675     0.05200
O968        O  0.83787775  0.42533915  0.81851344    -0.57400
H969        H  0.82275831  0.47227140  0.80436640     0.18100
O970        O  0.90418182  0.50435600  0.77849332    -0.64100
H971        H  0.92008215  0.45786467  0.79536423     0.16600
C972        C  0.91005400  0.40042386  0.79375516     0.28800
C973        C  0.91725468  0.37378341  0.79721048    -0.25000
C974        C  0.90763379  0.35900325  0.81889545    -0.24300
C975        C  0.89238509  0.37211363  0.83857539     0.40300
C976        C  0.88586083  0.39912820  0.83555948    -0.26800
O977        O  0.91779685  0.41309539  0.77087990    -0.58700
H978        H  0.92894260  0.36419161  0.78173315     0.15900
O979        O  0.88300033  0.35859704  0.86033923    -0.60100
H980        H  0.87382228  0.40877838  0.85071900     0.14400
H981        H  0.90966302  0.51555462  0.79379070     0.46200
H982        H  0.90350337  0.40928996  0.75786791     0.41600
H983        H  0.89795738  0.35861219  0.87314460     0.45100
H984        H  0.83327099  0.41492110  0.80239411     0.36500
C985        C  0.65457790  0.66355822  0.78661433    -0.27700
C986        C  0.65785978  0.64445156  0.80656198     0.01900
C987        C  0.64176237  0.64570245  0.82952626     0.30000
C988        C  0.62379510  0.66688990  0.83297185    -0.19500
C989        C  0.62202937  0.68717379  0.81385014    -0.28900
C990        C  0.63688680  0.68478385  0.79008347     0.44000
C991        C  0.68131525  0.62670785  0.80494388     0.05200
O992        O  0.64453804  0.62717371  0.84929119    -0.57400
H993        H  0.61241767  0.66827608  0.85128137     0.18100
O994        O  0.63518511  0.70373310  0.77057342    -0.64100
H995        H  0.66701692  0.66295192  0.76895224     0.16600
C996        C  0.68478238  0.60865234  0.78371128     0.28800
C997        C  0.70969436  0.59660538  0.77938527    -0.25000
C998        C  0.73144467  0.60309412  0.79561667    -0.24300
C999        C  0.72746148  0.62001715  0.81772657     0.40300
C1000       C  0.70247990  0.63145240  0.82237078    -0.26800
O1001       O  0.66405642  0.60308569  0.76690875    -0.58700
H1002       H  0.71234900  0.58330253  0.76256284     0.15900
O1003       O  0.74791078  0.62548626  0.83493103    -0.60100
H1004       H  0.70007649  0.64536813  0.83874306     0.14400
H1005       H  0.61932823  0.69871697  0.75999001     0.46200
H1006       H  0.66745388  0.61392786  0.75081973     0.41600
H1007       H  0.75455180  0.64337404  0.82977430     0.45100
H1008       H  0.63175940  0.61277562  0.84478084     0.36500
C1009       C  0.10111975  0.70489443  0.30173185    -0.27700
C1010       C  0.12318046  0.72016837  0.30934200     0.01900
C1011       C  0.13059200  0.74252049  0.29421002     0.30000
C1012       C  0.11724356  0.74808353  0.27052759    -0.19500
C1013       C  0.09608337  0.73188319  0.26206964    -0.28900
C1014       C  0.08747406  0.71067909  0.27828987     0.44000
C1015       C  0.14144797  0.70955443  0.32949261     0.05200
O1016       O  0.15233192  0.75754100  0.30115110    -0.57400
H1017       H  0.12416040  0.76434338  0.25815324     0.18100
O1018       O  0.06723192  0.69413915  0.27030319    -0.64100
H1019       H  0.09556350  0.68742799  0.31310218     0.16600
C1020       C  0.14307879  0.72050288  0.35518254     0.28800
C1021       C  0.16260863  0.71126916  0.37275046    -0.25000
C1022       C  0.18073378  0.69141832  0.36467105    -0.24300
C1023       C  0.17820055  0.67976214  0.33930295     0.40300
C1024       C  0.15863923  0.68883063  0.32197448    -0.26800
O1025       O  0.12645038  0.74085758  0.36284953    -0.58700
H1026       H  0.16447080  0.72054601  0.39213169     0.15900
O1027       O  0.19531948  0.66005730  0.33094251    -0.60100
H1028       H  0.15740136  0.68023963  0.30222179     0.14400
H1029       H  0.07602862  0.67982483  0.25977788     0.46200
H1030       H  0.11048173  0.73194751  0.37038845     0.41600
H1031       H  0.18758823  0.64322884  0.33782576     0.45100
H1032       H  0.14531355  0.77131556  0.31353835     0.36500
C1033       C  0.22001780  0.56609745  0.35996004    -0.27700
C1034       C  0.23752531  0.55964244  0.33906788     0.01900
C1035       C  0.26127995  0.57448179  0.33636764     0.30000
C1036       C  0.26649642  0.59600532  0.35355795    -0.19500
C1037       C  0.24841723  0.60311208  0.37390714    -0.28900
C1038       C  0.22535027  0.58722704  0.37738656     0.44000
C1039       C  0.22960487  0.53876449  0.31933124     0.05200
O1040       O  0.27920809  0.56859995  0.31653547    -0.57400
H1041       H  0.28436588  0.60769819  0.35032019     0.18100
O1042       O  0.20682142  0.59312444  0.39665653    -0.64100
H1043       H  0.20138742  0.55541761  0.36218592     0.16600
C1044       C  0.21959292  0.51380818  0.32754961     0.28800
C1045       C  0.20913981  0.49582760  0.30884053    -0.25000
C1046       C  0.20846937  0.50212145  0.28165043    -0.24300
C1047       C  0.21958400  0.52663172  0.27331650     0.40300
C1048       C  0.22977821  0.54469694  0.29206080    -0.26800
O1049       O  0.22032722  0.50666705  0.35383723    -0.58700
H1050       H  0.20118496  0.47698697  0.31575204     0.15900
O1051       O  0.21899326  0.53400702  0.24711297    -0.60100
H1052       H  0.23686582  0.56392262  0.28528121     0.14400
H1053       H  0.21227897  0.58259155  0.41235283     0.46200
H1054       H  0.20146319  0.50630084  0.35985067     0.41600
H1055       H  0.23677554  0.52911485  0.23989402     0.45100
H1056       H  0.29219787  0.55622432  0.32469812     0.36500
C1057       C  0.26775552  0.79915380  0.33355687    -0.27700
C1058       C  0.27695874  0.82177472  0.34708433     0.01900
C1059       C  0.28152590  0.82032096  0.37458777     0.30000
C1060       C  0.27769501  0.79610091  0.38797811    -0.19500
C1061       C  0.26958776  0.77300465  0.37420543    -0.28900
C1062       C  0.26414075  0.77498021  0.34670706     0.44000
C1063       C  0.28270444  0.84611514  0.33152341     0.05200
O1064       O  0.28910667  0.84260144  0.38855572    -0.57400
H1065       H  0.28168907  0.79533455  0.40908948     0.18100
O1066       O  0.25546221  0.75342884  0.33226651    -0.64100
H1067       H  0.26411171  0.79999527  0.31236411     0.16600
C1068       C  0.30860658  0.85698294  0.33054120     0.28800
C1069       C  0.31475899  0.87681162  0.31200842    -0.25000
C1070       C  0.29560043  0.88536726  0.29370391    -0.24300
C1071       C  0.26933865  0.87555326  0.29565657     0.40300
C1072       C  0.26306687  0.85614742  0.31449977    -0.26800
O1073       O  0.32855546  0.84698651  0.34615398    -0.58700
H1074       H  0.33509428  0.88398261  0.31062495     0.15900
O1075       O  0.24993647  0.88391216  0.27847044    -0.60100
H1076       H  0.24306839  0.84798570  0.31502657     0.14400
H1077       H  0.27166863  0.74605990  0.32354863     0.46200
H1078       H  0.33640320  0.83205079  0.33576474     0.41600
H1079       H  0.24264644  0.90047508  0.28652264     0.45100
H1080       H  0.30749474  0.83894058  0.39472795     0.36500
C1081       C  0.39638867  0.69989860  0.41789094    -0.27700
C1082       C  0.40586277  0.69835306  0.39162284     0.01900
C1083       C  0.38760551  0.69379541  0.37095561     0.30000
C1084       C  0.36041972  0.69157991  0.37653358    -0.19500
C1085       C  0.35057896  0.69429576  0.40263568    -0.28900
C1086       C  0.36901632  0.69785035  0.42351971     0.44000
C1087       C  0.43432690  0.70354346  0.38525833     0.05200
O1088       O  0.39599259  0.69268516  0.34498153    -0.57400
H1089       H  0.34691083  0.68887478  0.36001796     0.18100
O1090       O  0.36057824  0.70008556  0.44938871    -0.64100
H1091       H  0.41021809  0.70320086  0.43403252     0.16600
C1092       C  0.44618415  0.72816104  0.39176640     0.28800
C1093       C  0.47109487  0.73494123  0.38099685    -0.25000
C1094       C  0.48443756  0.71751843  0.36349304    -0.24300
C1095       C  0.47339861  0.69209414  0.35856944     0.40300
C1096       C  0.44865918  0.68522946  0.36960223    -0.26800
O1097       O  0.43249370  0.74673049  0.40654582    -0.58700
H1098       H  0.47909257  0.75462599  0.38492966     0.15900
O1099       O  0.48645672  0.67396246  0.34268377    -0.60100
H1100       H  0.44000790  0.66600958  0.36482620     0.14400
H1101       H  0.35908697  0.68148757  0.45587482     0.46200
H1102       H  0.43971370  0.74516007  0.42477507     0.41600
H1103       H  0.47710794  0.67448684  0.32536977     0.45100
H1104       H  0.39587713  0.71144298  0.33877097     0.36500
C1105       C  0.63014587  0.73374236  0.19381977    -0.27700
C1106       C  0.62233559  0.71090397  0.17972009     0.01900
C1107       C  0.59941211  0.69693944  0.18782615     0.30000
C1108       C  0.58568640  0.70478064  0.21089177    -0.19500
C1109       C  0.59487873  0.72625608  0.22639081    -0.28900
C1110       C  0.61665709  0.74143239  0.21704567     0.44000
C1111       C  0.64068576  0.69953092  0.15957353     0.05200
O1112       O  0.59141342  0.67450680  0.17439660    -0.57400
H1113       H  0.56909305  0.69275931  0.21774233     0.18100
O1114       O  0.62594174  0.76281912  0.23132583    -0.64100
H1115       H  0.64782255  0.74460773  0.18777411     0.16600
C1116       C  0.64466414  0.71171862  0.13473852     0.28800
C1117       C  0.66466963  0.70221522  0.11753407    -0.25000
C1118       C  0.68137993  0.68115291  0.12527531    -0.24300
C1119       C  0.67674152  0.66846205  0.14976906     0.40300
C1120       C  0.65640327  0.67754938  0.16660785    -0.26800
O1121       O  0.62939413  0.73310724  0.12734301    -0.58700
H1122       H  0.66810314  0.71226023  0.09880030     0.15900
O1123       O  0.69256652  0.64771476  0.15781531    -0.60100
H1124       H  0.65361296  0.66813072  0.18576794     0.14400
H1125       H  0.61560225  0.77833840  0.22486225     0.46200
H1126       H  0.63970604  0.74905986  0.13281436     0.41600
H1127       H  0.68494747  0.63162999  0.14920240     0.45100
H1128       H  0.58029271  0.68114530  0.15958705     0.36500
C1129       C  0.46649514  0.81558993  0.24454278    -0.27700
C1130       C  0.45674342  0.83663637  0.26038956     0.01900
C1131       C  0.46624312  0.83924924  0.28654754     0.30000
C1132       C  0.48483921  0.82094985  0.29648063    -0.19500
C1133       C  0.49445872  0.79958620  0.28083117    -0.28900
C1134       C  0.48524780  0.79732127  0.25442348     0.44000
C1135       C  0.43505670  0.85427616  0.25028299     0.05200
O1136       O  0.45603428  0.85848358  0.30320096    -0.57400
H1137       H  0.49117311  0.82320567  0.31690924     0.18100
O1138       O  0.49398952  0.77710783  0.23815936    -0.64100
H1139       H  0.45933117  0.81316837  0.22440612     0.16600
C1140       C  0.43714231  0.88234182  0.25063777     0.28800
C1141       C  0.41528383  0.89825951  0.24336871    -0.25000
C1142       C  0.39105298  0.88670066  0.23524151    -0.24300
C1143       C  0.38957343  0.85848717  0.23373669     0.40300
C1144       C  0.41138237  0.84271819  0.24109595    -0.26800
O1145       O  0.46037801  0.89445789  0.25830031    -0.58700
H1146       H  0.41720866  0.91974411  0.24459735     0.15900
O1147       O  0.36668864  0.84588280  0.22575625    -0.60100
H1148       H  0.40940723  0.82120126  0.24050814     0.14400
H1149       H  0.50986755  0.78440405  0.22888961     0.46200
H1150       H  0.47123962  0.89582104  0.24184431     0.41600
H1151       H  0.35695394  0.84158974  0.24240179     0.45100
H1152       H  0.47078967  0.87133004  0.30607419     0.36500
C1153       C  0.54700438  0.12704200  0.73438527    -0.27700
C1154       C  0.54808367  0.15443262  0.74051448     0.01900
C1155       C  0.57024253  0.16420237  0.75453291     0.30000
C1156       C  0.59132027  0.14713518  0.76094305    -0.19500
C1157       C  0.59126736  0.12007553  0.75317663    -0.28900
C1158       C  0.56827055  0.10991812  0.74057845     0.44000
C1159       C  0.52749144  0.17311585  0.73006798     0.05200
O1160       O  0.57227794  0.19078439  0.76074330    -0.57400
H1161       H  0.60846898  0.15565805  0.77082982     0.18100
O1162       O  0.56685566  0.08370106  0.73287599    -0.64100
H1163       H  0.52993104  0.11903854  0.72395431     0.16600
C1164       C  0.52205104  0.17392685  0.70269071     0.28800
C1165       C  0.50427098  0.19281941  0.69262928    -0.25000
C1166       C  0.49132960  0.21143569  0.70933536    -0.24300
C1167       C  0.49655327  0.21044252  0.73687743     0.40300
C1168       C  0.51450239  0.19145169  0.74698291    -0.26800
O1169       O  0.53529738  0.15737940  0.68530808    -0.58700
H1170       H  0.50106424  0.19309921  0.67136443     0.15900
O1171       O  0.48458325  0.22805007  0.75409476    -0.60100
H1172       H  0.51842051  0.19114857  0.76812610     0.14400
H1173       H  0.55869721  0.07428772  0.74818914     0.46200
H1174       H  0.52210272  0.14361060  0.68012358     0.41600
H1175       H  0.46821206  0.21888556  0.76033924     0.45100
H1176       H  0.58079924  0.19913013  0.74501025     0.36500
C1177       C  0.33723923  0.30938428  0.84587144    -0.27700
C1178       C  0.33187704  0.30947894  0.81854326     0.01900
C1179       C  0.30732963  0.31937689  0.80943362     0.30000
C1180       C  0.28789762  0.32745966  0.82758391    -0.19500
C1181       C  0.29268286  0.32634579  0.85497427    -0.28900
C1182       C  0.31778243  0.31781647  0.86414007     0.44000
C1183       C  0.35123942  0.29839586  0.79933631     0.05200
O1184       O  0.30195722  0.32071579  0.78276714    -0.57400
H1185       H  0.26886213  0.33440443  0.82021032     0.18100
O1186       O  0.32309697  0.31660834  0.89081569    -0.64100
H1187       H  0.35614596  0.30193836  0.85304953     0.16600
C1188       C  0.37631311  0.31026776  0.79544031     0.28800
C1189       C  0.39215062  0.30245417  0.77378719    -0.25000
C1190       C  0.38311560  0.28293330  0.75582214    -0.24300
C1191       C  0.35898470  0.26950654  0.76122468     0.40300
C1192       C  0.34328116  0.27731269  0.78283006    -0.26800
O1193       O  0.38431555  0.33119868  0.81109257    -0.58700
H1194       H  0.41053226  0.31313611  0.76994307     0.15900
O1195       O  0.34973551  0.24985314  0.74462313    -0.60100
H1196       H  0.32415325  0.26775039  0.78598049     0.14400
H1197       H  0.31656310  0.29887028  0.89656874     0.46200
H1198       H  0.39577625  0.32311697  0.82488706     0.41600
H1199       H  0.35890996  0.23335386  0.75035841     0.45100
H1200       H  0.31013247  0.33766983  0.77672428     0.36500
C1201       C  0.37430415  0.46173731  0.66776773    -0.27700
C1202       C  0.38320876  0.44478442  0.68805364     0.01900
C1203       C  0.38098899  0.45340544  0.71466889     0.30000
C1204       C  0.36950842  0.47816645  0.72066572    -0.19500
C1205       C  0.35940107  0.49458595  0.70051340    -0.28900
C1206       C  0.36225326  0.48632079  0.67381498     0.44000
C1207       C  0.39286419  0.41737507  0.68173932     0.05200
O1208       O  0.38890367  0.43725781  0.73511390    -0.57400
H1209       H  0.36735405  0.48393763  0.74133440     0.18100
O1210       O  0.35369709  0.50227262  0.65347980    -0.64100
H1211       H  0.37622433  0.45566436  0.64716998     0.16600
C1212       C  0.37675250  0.39941352  0.66745809     0.28800
C1213       C  0.38401656  0.37250654  0.66544224    -0.25000
C1214       C  0.40743806  0.36284866  0.67736080    -0.24300
C1215       C  0.42451796  0.38130277  0.69002490     0.40300
C1216       C  0.41711009  0.40821975  0.69218605    -0.26800
O1217       O  0.35274347  0.40745806  0.65729574    -0.58700
H1218       H  0.37061262  0.35896622  0.65532022     0.15900
O1219       O  0.44759887  0.37307335  0.70195447    -0.60100
H1220       H  0.42993521  0.42184577  0.70292666     0.14400
H1221       H  0.33625693  0.49477170  0.64804937     0.46200
H1222       H  0.35582515  0.40933494  0.63790704     0.41600
H1223       H  0.46168745  0.37529708  0.68824718     0.45100
H1224       H  0.37322632  0.42589431  0.73915244     0.36500
C1225       C  0.28747983  0.59255012  0.58355531    -0.27700
C1226       C  0.30391268  0.61242373  0.57278817     0.01900
C1227       C  0.32564389  0.62177490  0.58786154     0.30000
C1228       C  0.32954912  0.61258942  0.61379956    -0.19500
C1229       C  0.31219863  0.59375747  0.62519672    -0.28900
C1230       C  0.29158329  0.58300600  0.60930757     0.44000
C1231       C  0.29656244  0.62515410  0.54717928     0.05200
O1232       O  0.34258712  0.64073515  0.57782729    -0.57400
H1233       H  0.34566625  0.62102300  0.62535008     0.18100
O1234       O  0.27391209  0.56471820  0.61933960    -0.64100
H1235       H  0.27042588  0.58536041  0.57253781     0.16600
C1236       C  0.29031312  0.60998451  0.52438661     0.28800
C1237       C  0.28187797  0.62275120  0.50109922    -0.25000
C1238       C  0.27945428  0.65065418  0.50009984    -0.24300
C1239       C  0.28571088  0.66574645  0.52300419     0.40300
C1240       C  0.29412209  0.65300462  0.54612829    -0.26800
O1241       O  0.29317065  0.58276726  0.52445461    -0.58700
H1242       H  0.27730992  0.61075993  0.48376032     0.15900
O1243       O  0.28300425  0.69297930  0.52335683    -0.60100
H1244       H  0.29805116  0.66499600  0.56362940     0.14400
H1245       H  0.28107376  0.54709650  0.61383694     0.46200
H1246       H  0.27476937  0.57552530  0.52408515     0.41600
H1247       H  0.26424231  0.69629923  0.52875023     0.45100
H1248       H  0.35578635  0.63068568  0.56701876     0.36500
C1249       C  0.25628551  0.47097685  0.78929042    -0.27700
C1250       C  0.25209252  0.47931983  0.81564485     0.01900
C1251       C  0.25915701  0.50554906  0.82295583     0.30000
C1252       C  0.27089897  0.52264124  0.80428209    -0.19500
C1253       C  0.27543986  0.51413287  0.77801069    -0.28900
C1254       C  0.26783315  0.48808213  0.77057631     0.44000
C1255       C  0.24291367  0.45965566  0.83575667     0.05200
O1256       O  0.25515978  0.51449558  0.84845167    -0.57400
H1257       H  0.27663740  0.54256182  0.81040262     0.18100
O1258       O  0.27279318  0.47863785  0.74541203    -0.64100
H1259       H  0.25167969  0.45069258  0.78343531     0.16600
C1260       C  0.22010028  0.44380392  0.83167061     0.28800
C1261       C  0.21398708  0.42306404  0.84935183    -0.25000
C1262       C  0.23057825  0.41748622  0.87110799    -0.24300
C1263       C  0.25290194  0.43408400  0.87560642     0.40300
C1264       C  0.25870908  0.45498153  0.85817103    -0.26800
O1265       O  0.20374502  0.44841139  0.81039684    -0.58700
H1266       H  0.19681079  0.41060972  0.84535914     0.15900
O1267       O  0.27032573  0.42900938  0.89589505    -0.60100
H1268       H  0.27660898  0.46662605  0.86137019     0.14400
H1269       H  0.29129189  0.47163195  0.74590354     0.46200
H1270       H  0.20709179  0.43344523  0.79786249     0.41600
H1271       H  0.28416394  0.41714883  0.88805426     0.45100
H1272       H  0.23623792  0.52019749  0.84915380     0.36500
C1273       C  0.31591267  0.65292949  0.83640366    -0.27700
C1274       C  0.29472445  0.67106911  0.83425632     0.01900
C1275       C  0.27998645  0.67187586  0.81052958     0.30000
C1276       C  0.28679876  0.65501335  0.78933525    -0.19500
C1277       C  0.30828571  0.63711442  0.79123681    -0.28900
C1278       C  0.32282044  0.63612656  0.81518468     0.44000
C1279       C  0.29047669  0.69133595  0.85539310     0.05200
O1280       O  0.26020581  0.69045583  0.80713817    -0.57400
H1281       H  0.27538213  0.65630146  0.77116700     0.18100
O1282       O  0.34433143  0.61947485  0.81787553    -0.64100
H1283       H  0.32765480  0.65233617  0.85440643     0.16600
C1284       C  0.26515768  0.69602482  0.86688794     0.28800
C1285       C  0.26120284  0.71820298  0.88354240    -0.25000
C1286       C  0.28240573  0.73551441  0.88911204    -0.24300
C1287       C  0.30801863  0.72968039  0.87925533     0.40300
C1288       C  0.31193304  0.70773356  0.86257700    -0.26800
O1289       O  0.24396667  0.67978970  0.86106558    -0.58700
H1290       H  0.24134386  0.72272143  0.89084281     0.15900
O1291       O  0.32896407  0.74653926  0.88423048    -0.60100
H1292       H  0.33152031  0.70442118  0.85399858     0.14400
H1293       H  0.35989014  0.62998934  0.81162783     0.46200
H1294       H  0.24621692  0.66392094  0.87253206     0.41600
H1295       H  0.33666814  0.74025040  0.90120172     0.45100
H1296       H  0.24332461  0.68016095  0.80672445     0.36500
C1297       C  0.42884652  0.66179019  0.72793734    -0.27700
C1298       C  0.44887027  0.64941644  0.74278848     0.01900
C1299       C  0.44694073  0.62184283  0.74776853     0.30000
C1300       C  0.42407620  0.60770126  0.74011183    -0.19500
C1301       C  0.40286631  0.62062541  0.72718775    -0.28900
C1302       C  0.40614079  0.64772948  0.72001750     0.44000
C1303       C  0.46963952  0.66619832  0.75559936     0.05200
O1304       O  0.46672693  0.60879352  0.76121482    -0.57400
H1305       H  0.42242585  0.58688521  0.74555325     0.18100
O1306       O  0.38678295  0.66116436  0.70630144    -0.64100
H1307       H  0.42991677  0.68295819  0.72385112     0.16600
C1308       C  0.48439748  0.68510215  0.74101852     0.28800
C1309       C  0.50094744  0.70330322  0.75426073    -0.25000
C1310       C  0.50322780  0.70294373  0.78207722    -0.24300
C1311       C  0.48925091  0.68332807  0.79654912     0.40300
C1312       C  0.47251544  0.66535308  0.78333126    -0.26800
O1313       O  0.48307067  0.68560120  0.71379515    -0.58700
H1314       H  0.51195528  0.71783467  0.74270640     0.15900
O1315       O  0.49039401  0.68263993  0.82376338    -0.60100
H1316       H  0.46090055  0.65135968  0.79495789     0.14400
H1317       H  0.37669902  0.67140808  0.71993828     0.46200
H1318       H  0.47334600  0.70221174  0.70938454     0.41600
H1319       H  0.50378806  0.66872611  0.82790299     0.45100
H1320       H  0.48060350  0.60483825  0.74763777     0.36500
C1321       C  0.59312334  0.54938450  0.28036318    -0.27700
C1322       C  0.60445919  0.56531708  0.30028753     0.01900
C1323       C  0.62527532  0.55479900  0.31567242     0.30000
C1324       C  0.63566645  0.52947771  0.30986660    -0.19500
C1325       C  0.62586599  0.51419074  0.28850110    -0.28900
C1326       C  0.60366364  0.52408271  0.27431778     0.44000
C1327       C  0.59673993  0.59384590  0.30284987     0.05200
O1328       O  0.63573387  0.56934023  0.33630485    -0.57400
H1329       H  0.65224227  0.52231781  0.32156831     0.18100
O1330       O  0.59270371  0.50976854  0.25383491    -0.64100
H1331       H  0.57698063  0.55718039  0.26845565     0.16600
C1332       C  0.61570285  0.61385001  0.29767353     0.28800
C1333       C  0.60873149  0.64070282  0.30001659    -0.25000
C1334       C  0.58263075  0.64848098  0.30685360    -0.24300
C1335       C  0.56340627  0.62845683  0.31161875     0.40300
C1336       C  0.57053471  0.60134612  0.30954769    -0.26800
O1337       O  0.64107358  0.60734831  0.28965031    -0.58700
H1338       H  0.62379502  0.65555598  0.29563388     0.15900
O1339       O  0.53770818  0.63507147  0.31832156    -0.60100
H1340       H  0.55564524  0.58615629  0.31328978     0.14400
H1341       H  0.60143053  0.51663765  0.23751346     0.46200
H1342       H  0.64007285  0.60549393  0.27004614     0.41600
H1343       H  0.53776686  0.63716546  0.33792972     0.45100
H1344       H  0.65383594  0.57471573  0.33038356     0.36500
C1345       C  0.66401143  0.35516344  0.14901056    -0.27700
C1346       C  0.68579386  0.33758380  0.15010102     0.01900
C1347       C  0.70382911  0.33973673  0.17130853     0.30000
C1348       C  0.69931747  0.35837698  0.19160764    -0.19500
C1349       C  0.67702373  0.37536811  0.19113198    -0.28900
C1350       C  0.65973654  0.37419995  0.16914700     0.44000
C1351       C  0.68767757  0.31470600  0.13138322     0.05200
O1352       O  0.72520720  0.32277075  0.17306685    -0.57400
H1353       H  0.71288942  0.35896919  0.20825071     0.18100
O1354       O  0.63745928  0.39001391  0.16819954    -0.64100
H1355       H  0.64978580  0.35347796  0.13296648     0.16600
C1356       C  0.66890269  0.29394318  0.13297496     0.28800
C1357       C  0.67269190  0.27051775  0.11829393    -0.25000
C1358       C  0.69502393  0.26729134  0.10162838    -0.24300
C1359       C  0.71315726  0.28859409  0.09892056     0.40300
C1360       C  0.70953424  0.31204570  0.11396475    -0.26800
O1361       O  0.64737339  0.29587542  0.14979504    -0.58700
H1362       H  0.65845728  0.25441344  0.12055157     0.15900
O1363       O  0.73509623  0.28621534  0.08271421    -0.60100
H1364       H  0.72419435  0.32785254  0.11264871     0.14400
H1365       H  0.64285656  0.40578861  0.15764644     0.46200
H1366       H  0.65369523  0.28892728  0.16708092     0.41600
H1367       H  0.74929226  0.27878139  0.09415650     0.45100
H1368       H  0.71855662  0.30714276  0.18313862     0.36500
C1369       C  0.54156785  0.38234141  0.24626341    -0.27700
C1370       C  0.54243640  0.35435672  0.24658671     0.01900
C1371       C  0.56546791  0.34154538  0.25607482     0.30000
C1372       C  0.58757895  0.35663823  0.26386834    -0.19500
C1373       C  0.58741718  0.38460942  0.26200552    -0.28900
C1374       C  0.56373464  0.39746673  0.25398788     0.44000
C1375       C  0.52057633  0.33865236  0.23436692     0.05200
O1376       O  0.56756472  0.31426355  0.25519030    -0.57400
H1377       H  0.60560982  0.34620389  0.26944978     0.18100
O1378       O  0.56244443  0.42473008  0.25228877    -0.64100
H1379       H  0.52394289  0.39247016  0.23909080     0.16600
C1380       C  0.50768435  0.31800829  0.24827999     0.28800
C1381       C  0.48980952  0.30115316  0.23508689    -0.25000
C1382       C  0.48402137  0.30478277  0.20800950    -0.24300
C1383       C  0.49588041  0.32648844  0.19451895     0.40300
C1384       C  0.51392034  0.34315194  0.20772196    -0.26800
O1385       O  0.51275432  0.31385116  0.27468848    -0.58700
H1386       H  0.48061793  0.28503104  0.24608713     0.15900
O1387       O  0.49072600  0.33118312  0.16820569    -0.60100
H1388       H  0.52359101  0.35903084  0.19675805     0.14400
H1389       H  0.55847279  0.43095500  0.27062093     0.46200
H1390       H  0.50129737  0.32684035  0.28431682     0.41600
H1391       H  0.50443333  0.32089625  0.15826479     0.45100
H1392       H  0.56719693  0.30842257  0.27398576     0.36500
C1393       C  0.74880445  0.51791453  0.18767632    -0.27700
C1394       C  0.73261159  0.53109161  0.16908858     0.01900
C1395       C  0.70481524  0.52691994  0.17009024     0.30000
C1396       C  0.69377062  0.50994997  0.18909485    -0.19500
C1397       C  0.70977138  0.49724954  0.20806951    -0.28900
C1398       C  0.73758645  0.50132540  0.20720386     0.44000
C1399       C  0.74414944  0.55065218  0.14994591     0.05200
O1400       O  0.68801934  0.54003106  0.15312020    -0.57400
H1401       H  0.67232132  0.50738903  0.18943957     0.18100
O1402       O  0.75400481  0.48923637  0.22523571    -0.64100
H1403       H  0.77022002  0.52057974  0.18716473     0.16600
C1404       C  0.76071727  0.57153736  0.15877404     0.28800
C1405       C  0.76666915  0.59284572  0.14185254    -0.25000
C1406       C  0.75605732  0.59407557  0.11606379    -0.24300
C1407       C  0.74154693  0.57198720  0.10643739     0.40300
C1408       C  0.73596941  0.55044609  0.12324126    -0.26800
O1409       O  0.76887763  0.57280084  0.18471651    -0.58700
H1410       H  0.77790734  0.60947301  0.14981792     0.15900
O1411       O  0.73136620  0.57186064  0.08120035    -0.60100
H1412       H  0.72392383  0.53415561  0.11577423     0.14400
H1413       H  0.75787473  0.47137379  0.21763417     0.46200
H1414       H  0.78805604  0.56797248  0.18428987     0.41600
H1415       H  0.74576737  0.56440447  0.06983857     0.45100
H1416       H  0.68453864  0.55755266  0.16166024     0.36500
C1417       C  0.69401561  0.42579339  0.40590408    -0.27700
C1418       C  0.68459425  0.40117914  0.41526818     0.01900
C1419       C  0.66945324  0.38501782  0.39805821     0.30000
C1420       C  0.66560621  0.39265398  0.37155842    -0.19500
C1421       C  0.67675650  0.41638280  0.36149150    -0.28900
C1422       C  0.69025829  0.43346473  0.37938187     0.44000
C1423       C  0.69276883  0.39144073  0.44200674     0.05200
O1424       O  0.65951144  0.36099649  0.40649395    -0.57400
H1425       H  0.65487374  0.37922300  0.35853609     0.18100
O1426       O  0.70089733  0.45720856  0.37102721    -0.64100
H1427       H  0.70528450  0.43871665  0.41899079     0.16600
C1428       C  0.72000213  0.38939905  0.44859605     0.28800
C1429       C  0.72770668  0.37858156  0.47303710    -0.25000
C1430       C  0.70865010  0.36889859  0.49111669    -0.24300
C1431       C  0.68134377  0.37152187  0.48481705     0.40300
C1432       C  0.67362367  0.38272868  0.46049790    -0.26800
O1433       O  0.73935329  0.39676749  0.43072593    -0.58700
H1434       H  0.74876786  0.37643869  0.47720395     0.15900
O1435       O  0.66201144  0.36273112  0.50204736    -0.60100
H1436       H  0.65260669  0.38425246  0.45588527     0.14400
H1437       H  0.71978990  0.45321632  0.36667367     0.46200
H1438       H  0.74233699  0.38079277  0.41938122     0.41600
H1439       H  0.65896930  0.37777209  0.51456458     0.45100
H1440       H  0.67401890  0.34793795  0.40322261     0.36500
C1441       C  0.59251469  0.31342931  0.57804584    -0.27700
C1442       C  0.58358263  0.31862609  0.60403137     0.01900
C1443       C  0.60212645  0.32761445  0.62306374     0.30000
C1444       C  0.62916331  0.32998033  0.61623222    -0.19500
C1445       C  0.63836119  0.32320027  0.59064135    -0.28900
C1446       C  0.61950835  0.31559501  0.57127133     0.44000
C1447       C  0.55575377  0.31145716  0.61160624     0.05200
O1448       O  0.59454192  0.33159951  0.64901459    -0.57400
H1449       H  0.64315206  0.33563552  0.63158274     0.18100
O1450       O  0.62728017  0.30903927  0.54591197    -0.64100
H1451       H  0.57856263  0.30671722  0.56307745     0.16600
C1452       C  0.53926598  0.32880857  0.62646974     0.28800
C1453       C  0.51453518  0.31989438  0.63597499    -0.25000
C1454       C  0.50533583  0.29408442  0.63002216    -0.24300
C1455       C  0.52099116  0.27740989  0.61368106     0.40300
C1456       C  0.54596721  0.28607791  0.60473532    -0.26800
O1457       O  0.54718509  0.35438487  0.63205059    -0.58700
H1458       H  0.50260900  0.33310052  0.64831224     0.15900
O1459       O  0.51278821  0.25202985  0.60757512    -0.60100
H1460       H  0.55822961  0.27240862  0.59327510     0.14400
H1461       H  0.62631730  0.32592847  0.53580053     0.46200
H1462       H  0.54123959  0.36512246  0.61667108     0.41600
H1463       H  0.51948946  0.24071009  0.62221651     0.45100
H1464       H  0.59676856  0.35100448  0.65232225     0.36500
C1465       C  0.67438076  0.14763307  0.64582734    -0.27700
C1466       C  0.69623264  0.16501900  0.64773182     0.01900
C1467       C  0.71308982  0.16321965  0.66992582     0.30000
C1468       C  0.70735108  0.14512049  0.69027736    -0.19500
C1469       C  0.68490925  0.12836487  0.68901662    -0.28900
C1470       C  0.66870731  0.12932632  0.66612327     0.44000
C1471       C  0.69928232  0.18731899  0.62860152     0.05200
O1472       O  0.73394496  0.18064320  0.67298006    -0.57400
H1473       H  0.72018544  0.14480775  0.70752414     0.18100
O1474       O  0.64666794  0.11331854  0.66378654    -0.64100
H1475       H  0.66114402  0.14889462  0.62892968     0.16600
C1476       C  0.72335860  0.19178850  0.61466745     0.28800
C1477       C  0.72719917  0.21569009  0.60069437    -0.25000
C1478       C  0.70716705  0.23519745  0.60042677    -0.24300
C1479       C  0.68246260  0.22986164  0.61268215     0.40300
C1480       C  0.67862741  0.20606022  0.62655388    -0.26800
O1481       O  0.74363352  0.17347323  0.61555691    -0.58700
H1482       H  0.74627139  0.21957382  0.59128099     0.15900
O1483       O  0.66240437  0.24847674  0.61239008    -0.60100
H1484       H  0.65997091  0.20292296  0.63703314     0.14400
H1485       H  0.63168736  0.12398281  0.67115110     0.46200
H1486       H  0.73904925  0.15987920  0.60196893     0.41600
H1487       H  0.65316749  0.24571942  0.59521014     0.45100
H1488       H  0.75025663  0.16985982  0.66988783     0.36500
C1489       C  0.84776920  0.32666178  0.64864816    -0.27700
C1490       C  0.84856325  0.30234064  0.66234030     0.01900
C1491       C  0.82931556  0.28273813  0.65672052     0.30000
C1492       C  0.80870991  0.28824333  0.63887699    -0.19500
C1493       C  0.80712015  0.31306165  0.62607965    -0.28900
C1494       C  0.82746304  0.33199934  0.63039570     0.44000
C1495       C  0.86612176  0.29959386  0.68574138     0.05200
O1496       O  0.82902598  0.25915264  0.67044465    -0.57400
H1497       H  0.79336921  0.27335859  0.63577020     0.18100
O1498       O  0.82641490  0.35666367  0.61876049    -0.64100
H1499       H  0.86225115  0.34205825  0.65309109     0.16600
C1500       C  0.88536691  0.27921214  0.68779589     0.28800
C1501       C  0.89898868  0.27540980  0.71188005    -0.25000
C1502       C  0.89308880  0.29146067  0.73405703    -0.24300
C1503       C  0.87496326  0.31279227  0.73132031     0.40300
C1504       C  0.86170220  0.31667468  0.70738580    -0.26800
O1505       O  0.89093137  0.26307986  0.66639826    -0.58700
H1506       H  0.91309268  0.25914641  0.71359348     0.15900
O1507       O  0.86937882  0.32950208  0.75229042    -0.60100
H1508       H  0.84704303  0.33249885  0.70605285     0.14400
H1509       H  0.83809143  0.35528859  0.60285963     0.46200
H1510       H  0.88408635  0.24519621  0.67126105     0.41600
H1511       H  0.88360176  0.34323115  0.75190175     0.45100
H1512       H  0.83522303  0.24546400  0.65754077     0.36500
C1513       C  0.75665238  0.45212131  0.62489107    -0.27700
C1514       C  0.75254518  0.45104799  0.65254908     0.01900
C1515       C  0.74112374  0.42787772  0.66348628     0.30000
C1516       C  0.73532953  0.40599206  0.64720928    -0.19500
C1517       C  0.74121400  0.40619375  0.61978930    -0.28900
C1518       C  0.75121794  0.42999379  0.60857416     0.44000
C1519       C  0.76244872  0.47287430  0.67017595     0.05200
O1520       O  0.73688950  0.42575006  0.69034859    -0.57400
H1521       H  0.72743052  0.38822681  0.65655444     0.18100
O1522       O  0.75703533  0.43154714  0.58198326    -0.64100
H1523       H  0.76491637  0.46994018  0.61596983     0.16600
C1524       C  0.78905210  0.48172648  0.66824157     0.28800
C1525       C  0.79909719  0.49996259  0.68676906    -0.25000
C1526       C  0.78320166  0.50957223  0.70779637    -0.24300
C1527       C  0.75632411  0.50139667  0.70931229     0.40300
C1528       C  0.74613451  0.48336346  0.69052132    -0.26800
O1529       O  0.80605038  0.47107581  0.64957650    -0.58700
H1530       H  0.81988212  0.50566781  0.68528453     0.15900
O1531       O  0.73993975  0.51049196  0.72927925    -0.60100
H1532       H  0.72552916  0.47710496  0.69218959     0.14400
H1533       H  0.74035512  0.43781924  0.57355993     0.46200
H1534       H  0.80864734  0.48531939  0.63619649     0.41600
H1535       H  0.73260518  0.52758235  0.72268918     0.45100
H1536       H  0.75388493  0.41888497  0.69762670     0.36500
C1537       C  0.85518880  0.35525873  0.28976451    -0.27700
C1538       C  0.82957061  0.35567008  0.30104499     0.01900
C1539       C  0.82280969  0.33710177  0.32078911     0.30000
C1540       C  0.84114361  0.31768221  0.32831729    -0.19500
C1541       C  0.86657843  0.31660643  0.31664086    -0.28900
C1542       C  0.87382869  0.33595383  0.29764664     0.44000
C1543       C  0.80875885  0.37369876  0.29099827     0.05200
O1544       O  0.79771932  0.33688346  0.33176417    -0.57400
H1545       H  0.83520659  0.30292270  0.34287084     0.18100
O1546       O  0.89817369  0.33482843  0.28516975    -0.64100
H1547       H  0.86041220  0.36934844  0.27432654     0.16600
C1548       C  0.80277073  0.39768117  0.30430015     0.28800
C1549       C  0.77870018  0.41087046  0.29920034    -0.25000
C1550       C  0.76033971  0.40011881  0.28108926    -0.24300
C1551       C  0.76754301  0.37731676  0.26618066     0.40300
C1552       C  0.79158092  0.36425155  0.27125952    -0.26800
O1553       O  0.81920194  0.40708323  0.32389743    -0.58700
H1554       H  0.77355223  0.42838042  0.31081918     0.15900
O1555       O  0.75057563  0.36680214  0.24761543    -0.60100
H1556       H  0.79603398  0.34573859  0.26096696     0.14400
H1557       H  0.90968616  0.34732182  0.29522244     0.46200
H1558       H  0.83321840  0.41734164  0.31445856     0.41600
H1559       H  0.75520279  0.37599054  0.23079187     0.45100
H1560       H  0.79844874  0.34980391  0.34669839     0.36500
C1561       C  0.79844525  0.26292061  0.46218459    -0.27700
C1562       C  0.82548809  0.26082180  0.46903505     0.01900
C1563       C  0.83345372  0.26906689  0.49462399     0.30000
C1564       C  0.81491510  0.28060581  0.51214482    -0.19500
C1565       C  0.78804226  0.28353910  0.50491725    -0.28900
C1566       C  0.77976207  0.27381910  0.47994727     0.44000
C1567       C  0.84543305  0.25316068  0.44830199     0.05200
O1568       O  0.85948110  0.26660512  0.50246592    -0.57400
H1569       H  0.82165544  0.28753610  0.53139024     0.18100
O1570       O  0.75386690  0.27674025  0.47183573    -0.64100
H1571       H  0.79191318  0.25731402  0.44246680     0.16600
C1572       C  0.84176180  0.23079147  0.43166999     0.28800
C1573       C  0.85862544  0.22669133  0.40964433    -0.25000
C1574       C  0.87922425  0.24479968  0.40358316    -0.24300
C1575       C  0.88388902  0.26617543  0.42140457     0.40300
C1576       C  0.86710422  0.27014427  0.44336059    -0.26800
O1577       O  0.82173242  0.21286252  0.43680886    -0.58700
H1578       H  0.85474103  0.20988528  0.39664299     0.15900
O1579       O  0.90413360  0.28405931  0.41709735    -0.60100
H1580       H  0.87023973  0.28756720  0.45575001     0.14400
H1581       H  0.74524389  0.25935478  0.47559988     0.46200
H1582       H  0.80860522  0.21524333  0.42233849     0.41600
H1583       H  0.89561779  0.29959090  0.40840272     0.45100
H1584       H  0.86123925  0.24791565  0.50859097     0.36500
C1585       C  0.01446966  0.33978156  0.27783349    -0.27700
C1586       C  0.01769168  0.34030776  0.25018491     0.01900
C1587       C  0.00409308  0.32106823  0.23477653     0.30000
C1588       C  0.98799321  0.30163650  0.24717056    -0.19500
C1589       C  0.98508167  0.30094505  0.27502366    -0.28900
C1590       C  0.99862014  0.32053524  0.29022716     0.44000
C1591       C  0.03784740  0.35901694  0.23865644     0.05200
O1592       O  0.00661817  0.32088444  0.20763782    -0.57400
H1593       H  0.97785447  0.28704988  0.23493059     0.18100
O1594       O  0.99711312  0.32088687  0.31744799    -0.64100
H1595       H  0.02531247  0.35374425  0.29019384     0.16600
C1596       C  0.03867797  0.38618368  0.24616126     0.28800
C1597       C  0.06154307  0.40162864  0.24091119    -0.25000
C1598       C  0.08389740  0.39045470  0.22805079    -0.24300
C1599       C  0.08162588  0.36407922  0.21793480     0.40300
C1600       C  0.05900089  0.34866674  0.22353728    -0.26800
O1601       O  0.01734240  0.39762958  0.25904145    -0.58700
H1602       H  0.06220935  0.42198393  0.24815685     0.15900
O1603       O  0.10211879  0.35230893  0.20407511    -0.60100
H1604       H  0.05884898  0.32790907  0.21748182     0.14400
H1605       H  0.01237053  0.30991684  0.32349039     0.46200
H1606       H  0.02349408  0.40135793  0.27736418     0.41600
H1607       H  0.09874192  0.35666480  0.18518253     0.45100
H1608       H  0.99201738  0.33246931  0.20115775     0.36500
C1609       C  0.83372873  0.20082908  0.14367113    -0.27700
C1610       C  0.82608277  0.20668500  0.16996209     0.01900
C1611       C  0.79915959  0.20383389  0.17745438     0.30000
C1612       C  0.78030222  0.19626250  0.15872018    -0.19500
C1613       C  0.78769136  0.19076004  0.13230328    -0.28900
C1614       C  0.81476669  0.19277109  0.12488604     0.44000
C1615       C  0.84601141  0.21528631  0.18985043     0.05200
O1616       O  0.79103477  0.20813305  0.20319317    -0.57400
H1617       H  0.75972392  0.19438085  0.16509946     0.18100
O1618       O  0.82287921  0.18734503  0.09937309    -0.64100
H1619       H  0.85437369  0.20286690  0.13760090     0.16600
C1620       C  0.86901365  0.19999385  0.19475842     0.28800
C1621       C  0.88539677  0.20635441  0.21627245    -0.25000
C1622       C  0.87869580  0.22737290  0.23356675    -0.24300
C1623       C  0.85659447  0.24361835  0.22773649     0.40300
C1624       C  0.84067007  0.23771023  0.20583344    -0.26800
O1625       O  0.87471421  0.17779513  0.17976484    -0.58700
H1626       H  0.90222096  0.19354320  0.22058359     0.15900
O1627       O  0.84965408  0.26455174  0.24399711    -0.60100
H1628       H  0.82336190  0.25001857  0.20198547     0.14400
H1629       H  0.82126618  0.20449172  0.08977712     0.46200
H1630       H  0.86544410  0.16287943  0.18882259     0.41600
H1631       H  0.86094173  0.27965833  0.23810711     0.45100
H1632       H  0.79377527  0.19086741  0.21233056     0.36500
C1633       C  0.33034014  0.16684803  0.66175296    -0.27700
C1634       C  0.33546443  0.15052764  0.68368841     0.01900
C1635       C  0.35925056  0.15383102  0.69799570     0.30000
C1636       C  0.37722905  0.17399448  0.69079317    -0.19500
C1637       C  0.37115673  0.19146574  0.66996012    -0.28900
C1638       C  0.34791031  0.18734654  0.65494963     0.44000
C1639       C  0.31362303  0.13381276  0.69401590     0.05200
O1640       O  0.36447706  0.13819878  0.71965507    -0.57400
H1641       H  0.39501859  0.17707497  0.70253559     0.18100
O1642       O  0.34156033  0.20408331  0.63441434    -0.64100
H1643       H  0.31186123  0.16468971  0.65088697     0.16600
C1644       C  0.29615239  0.14456270  0.71315386     0.28800
C1645       C  0.27258443  0.13122313  0.71954128    -0.25000
C1646       C  0.26609725  0.10699719  0.70712019    -0.24300
C1647       C  0.28443486  0.09534255  0.68916606     0.40300
C1648       C  0.30799620  0.10893326  0.68252545    -0.26800
O1649       O  0.30137979  0.16879549  0.72476245    -0.58700
H1650       H  0.25876504  0.14040598  0.73344979     0.15900
O1651       O  0.27875840  0.07161885  0.67676858    -0.60100
H1652       H  0.32129463  0.10063474  0.66761204     0.14400
H1653       H  0.35243572  0.19781872  0.61910758     0.46200
H1654       H  0.29311637  0.18219508  0.71292397     0.41600
H1655       H  0.26854115  0.07651881  0.66069578     0.45100
H1656       H  0.35740036  0.14832216  0.73512936     0.36500
C1657       C  0.16686314  0.15771192  0.84060783    -0.27700
C1658       C  0.19012486  0.17325470  0.84080425     0.01900
C1659       C  0.21018757  0.16835177  0.82181997     0.30000
C1660       C  0.20640061  0.14892787  0.80226063    -0.19500
C1661       C  0.18266357  0.13410488  0.80120507    -0.28900
C1662       C  0.16312126  0.13803893  0.82110740     0.44000
C1663       C  0.19195937  0.19700840  0.85812281     0.05200
O1664       O  0.23295276  0.18350535  0.82132193    -0.57400
H1665       H  0.22171810  0.14613921  0.78724065     0.18100
O1666       O  0.13941844  0.12443644  0.82039001    -0.64100
H1667       H  0.15114745  0.16159198  0.85496090     0.16600
C1668       C  0.17520089  0.21893380  0.85345516     0.28800
C1669       C  0.17983643  0.24306711  0.86647763    -0.25000
C1670       C  0.20092873  0.24578000  0.88453813    -0.24300
C1671       C  0.21695169  0.22346913  0.89023580     0.40300
C1672       C  0.21255673  0.19929666  0.87680528    -0.26800
O1673       O  0.15554105  0.21756488  0.83464537    -0.58700
H1674       H  0.16716238  0.25996053  0.86198768     0.15900
O1675       O  0.23811998  0.22562929  0.90723773    -0.60100
H1676       H  0.22579158  0.18259519  0.88024874     0.14400
H1677       H  0.14180585  0.10918155  0.83263165     0.46200
H1678       H  0.13892686  0.21380313  0.84470534     0.41600
H1679       H  0.23133148  0.21923100  0.92460830     0.45100
H1680       H  0.22844769  0.19936046  0.81049392     0.36500
C1681       C  0.00196440  0.16406810  0.76423069    -0.27700
C1682       C  0.02792299  0.17314861  0.75862943     0.01900
C1683       C  0.03429835  0.20000667  0.76416129     0.30000
C1684       C  0.01514896  0.21702900  0.77534372    -0.19500
C1685       C  0.98958252  0.20767617  0.78193959    -0.28900
C1686       C  0.98293676  0.18102943  0.77592844     0.44000
C1687       C  0.04877467  0.15425329  0.74882623     0.05200
O1688       O  0.05952196  0.20962537  0.75970993    -0.57400
H1689       H  0.02070987  0.23741785  0.77989769     0.18100
O1690       O  0.95795217  0.17134865  0.78141712    -0.64100
H1691       H  0.99650334  0.14363366  0.75980930     0.16600
C1692       C  0.05365928  0.13009190  0.76219973     0.28800
C1693       C  0.07537894  0.11410784  0.75488878    -0.25000
C1694       C  0.09317214  0.12207689  0.73476158    -0.24300
C1695       C  0.08750245  0.14553498  0.72041294     0.40300
C1696       C  0.06538141  0.16124897  0.72735651    -0.26800
O1697       O  0.03835819  0.12268068  0.78359469    -0.58700
H1698       H  0.07934075  0.09634345  0.76640890     0.15900
O1699       O  0.10402024  0.15394426  0.70032398    -0.60100
H1700       H  0.06170224  0.17947459  0.71647668     0.14400
H1701       H  0.94749374  0.17449676  0.76504431     0.46200
H1702       H  0.04666706  0.13150223  0.79916116     0.41600
H1703       H  0.09847888  0.14362053  0.68444747     0.45100
H1704       H  0.06971649  0.20508750  0.77590852     0.36500
C1705       C  0.26393685  0.93820210  0.84183019    -0.27700
C1706       C  0.23966523  0.95222431  0.84358672     0.01900
C1707       C  0.22037706  0.94353734  0.86222092     0.30000
C1708       C  0.22545982  0.92131708  0.87830327    -0.19500
C1709       C  0.24917875  0.90666708  0.87567272    -0.28900
C1710       C  0.26856254  0.91539114  0.85726907     0.44000
C1711       C  0.23370974  0.97404770  0.82422431     0.05200
O1712       O  0.19547604  0.95489092  0.86300803    -0.57400
H1713       H  0.20989955  0.91444161  0.89162963     0.18100
O1714       O  0.29206641  0.90171046  0.85413972    -0.64100
H1715       H  0.27911737  0.94446838  0.82780086     0.16600
C1716       C  0.22144578  0.99815071  0.83217396     0.28800
C1717       C  0.21236293  0.01624185  0.81306816    -0.25000
C1718       C  0.21624084  0.01148380  0.78572279    -0.24300
C1719       C  0.23110136  0.98882056  0.77795584     0.40300
C1720       C  0.23924533  0.97019439  0.79703007    -0.26800
O1721       O  0.21792444  0.00417647  0.85855661    -0.58700
H1722       H  0.20187899  0.03395515  0.81975002     0.15900
O1723       O  0.23634845  0.98368936  0.75167159    -0.60100
H1724       H  0.24902550  0.95210137  0.79032595     0.14400
H1725       H  0.28967510  0.89068046  0.83791194     0.46200
H1726       H  0.23496899  0.01234126  0.86424537     0.41600
H1727       H  0.25403297  0.99188824  0.74821006     0.45100
H1728       H  0.19357059  0.96265079  0.88108999     0.36500
C1729       C  0.38153719  0.21720815  0.30263112    -0.27700
C1730       C  0.35424892  0.22304631  0.30473618     0.01900
C1731       C  0.34110729  0.23501446  0.28324544     0.30000
C1732       C  0.35494782  0.24006909  0.25975777    -0.19500
C1733       C  0.38193540  0.23293620  0.25690864    -0.28900
C1734       C  0.39549525  0.22227733  0.27896389     0.44000
C1735       C  0.33882620  0.21522346  0.32851265     0.05200
O1736       O  0.31436392  0.24070336  0.28455760    -0.57400
H1737       H  0.34409419  0.24862623  0.24328927     0.18100
O1738       O  0.42182656  0.21514737  0.27713590    -0.64100
H1739       H  0.39185437  0.20812221  0.31914980     0.16600
C1740       C  0.33568763  0.18813449  0.33521018     0.28800
C1741       C  0.31682362  0.18074450  0.35442867    -0.25000
C1742       C  0.30089220  0.20016106  0.36678698    -0.24300
C1743       C  0.30527260  0.22728479  0.36134654     0.40300
C1744       C  0.32420170  0.23468286  0.34236401    -0.26800
O1745       O  0.34904233  0.16866621  0.32130445    -0.58700
H1746       H  0.31337499  0.15978261  0.35833898     0.15900
O1747       O  0.29019349  0.24661260  0.37356376    -0.60100
H1748       H  0.32654722  0.25558162  0.33745983     0.14400
H1749       H  0.43184938  0.23098616  0.28342995     0.46200
H1750       H  0.36463802  0.16411825  0.33241918     0.41600
H1751       H  0.29943995  0.25046852  0.39051955     0.45100
H1752       H  0.30527544  0.22421562  0.27846415     0.36500
C1753       C  0.25981275  0.05193327  0.29361235    -0.27700
C1754       C  0.25628549  0.04308961  0.31987683     0.01900
C1755       C  0.26220205  0.01635417  0.32595966     0.30000
C1756       C  0.27240699  0.99927536  0.30620069    -0.19500
C1757       C  0.27682049  0.00834179  0.28011320    -0.28900
C1758       C  0.27007428  0.03488825  0.27386577     0.44000
C1759       C  0.24783875  0.06247462  0.34081412     0.05200
O1760       O  0.25739110  0.00661614  0.35098520    -0.57400
H1761       H  0.27707159  0.97884715  0.31138336     0.18100
O1762       O  0.27443383  0.04474702  0.24883751    -0.64100
H1763       H  0.25547953  0.07247606  0.28859717     0.16600
C1764       C  0.26417552  0.06780729  0.36294175     0.28800
C1765       C  0.25776581  0.08866260  0.38048775    -0.25000
C1766       C  0.23548085  0.10503307  0.37605469    -0.24300
C1767       C  0.21825346  0.09862878  0.35485242     0.40300
C1768       C  0.22456810  0.07763562  0.33741281    -0.26800
O1769       O  0.28746746  0.05399724  0.36660493    -0.58700
H1770       H  0.27146848  0.09328005  0.39642761     0.15900
O1771       O  0.19580659  0.11350346  0.35024658    -0.60100
H1772       H  0.21168107  0.07371543  0.32063480     0.14400
H1773       H  0.29299464  0.05158439  0.24902247     0.46200
H1774       H  0.30106349  0.06368303  0.35601258     0.41600
H1775       H  0.18188535  0.10577182  0.36198354     0.45100
H1776       H  0.27515103  0.00233523  0.35842636     0.36500
C1777       C  0.34200659  0.27964366  0.55793344    -0.27700
C1778       C  0.34189167  0.25524817  0.54419773     0.01900
C1779       C  0.36060516  0.23552180  0.55115796     0.30000
C1780       C  0.37847066  0.24003896  0.57196371    -0.19500
C1781       C  0.37785158  0.26396859  0.58662952    -0.28900
C1782       C  0.35972605  0.28411320  0.57895102     0.44000
C1783       C  0.32153442  0.24977288  0.52350762     0.05200
O1784       O  0.36078881  0.21120943  0.53855200    -0.57400
H1785       H  0.39184398  0.22406263  0.57754427     0.18100
O1786       O  0.35842979  0.30791836  0.59239857    -0.64100
H1787       H  0.32797963  0.29514640  0.55263295     0.16600
C1788       C  0.29404190  0.25120161  0.52937603     0.28800
C1789       C  0.27534666  0.24180128  0.51092445    -0.25000
C1790       C  0.28367851  0.23096272  0.48647261    -0.24300
C1791       C  0.31104240  0.23171183  0.47979504     0.40300
C1792       C  0.32966646  0.24090002  0.49827599    -0.26800
O1793       O  0.28538286  0.25962256  0.55390200    -0.58700
H1794       H  0.25444210  0.24154018  0.51644070     0.15900
O1795       O  0.31995087  0.22263639  0.45558105    -0.60100
H1796       H  0.35067550  0.24031935  0.49319125     0.14400
H1797       H  0.37210108  0.31937970  0.58390135     0.46200
H1798       H  0.27902950  0.27815204  0.55120244     0.41600
H1799       H  0.31733433  0.23776400  0.44321678     0.45100
H1800       H  0.34759186  0.20020120  0.54833597     0.36500
C1801       C  0.09460028  0.17410962  0.38012971    -0.27700
C1802       C  0.07877191  0.19514795  0.38983401     0.01900
C1803       C  0.08938646  0.21253814  0.40908272     0.30000
C1804       C  0.11583730  0.20967434  0.41720714    -0.19500
C1805       C  0.13237910  0.18997284  0.40592614    -0.28900
C1806       C  0.12123498  0.17151132  0.38789098     0.44000
C1807       C  0.05255971  0.20083917  0.37756783     0.05200
O1808       O  0.07465201  0.23350737  0.41878739    -0.57400
H1809       H  0.12389074  0.22416297  0.43102630     0.08500
O1810       O  0.13643664  0.15158565  0.37681156    -0.64100
H1811       H  0.08658814  0.16030325  0.36561524     0.16600
C1812       C  0.05076123  0.20479953  0.34996131     0.28800
C1813       C  0.02673286  0.21302939  0.33878549    -0.25000
C1814       C  0.00407740  0.21760735  0.35468264    -0.24300
C1815       C  0.00558773  0.21285837  0.38222510     0.40300
C1816       C  0.02972761  0.20454753  0.39347113    -0.26800
O1817       O  0.07289508  0.20254726  0.33396900    -0.58700
H1818       H  0.02614894  0.21674548  0.31759875     0.15900
O1819       O  0.98373723  0.21641987  0.39833297    -0.60100
H1820       H  0.03075344  0.20138231  0.41472264     0.14400
H1821       H  0.13574450  0.13675581  0.38977102     0.46200
H1822       H  0.07068368  0.18542297  0.32430567     0.41600
H1823       H  0.97439268  0.19898502  0.39825561     0.45100
H1824       H  0.07794609  0.24839105  0.40625698     0.36500
C1825       C  0.21892220  0.11898852  0.54367115    -0.27700
C1826       C  0.19205796  0.11710100  0.55139012     0.01900
C1827       C  0.17236299  0.12751687  0.53439948     0.30000
C1828       C  0.17976235  0.14061893  0.51088133    -0.19500
C1829       C  0.20673295  0.14309506  0.50354383    -0.28900
C1830       C  0.22631062  0.13158643  0.51997339     0.44000
C1831       C  0.18537524  0.10705925  0.57846402     0.05200
O1832       O  0.14585797  0.12558120  0.54091628    -0.57400
H1833       H  0.16437184  0.14913651  0.49849066     0.18100
O1834       O  0.25291236  0.13442275  0.51420857    -0.64100
H1835       H  0.23444706  0.11180301  0.55670037     0.16600
C1836       C  0.19597747  0.08294966  0.58812649     0.28800
C1837       C  0.19304452  0.07627373  0.61507461    -0.25000
C1838       C  0.17975762  0.09345265  0.63295899    -0.24300
C1839       C  0.16752886  0.11667685  0.62268957     0.40300
C1840       C  0.17058061  0.12331046  0.59584654    -0.26800
O1841       O  0.20927025  0.06582365  0.57134092    -0.58700
H1842       H  0.20220806  0.05807686  0.62211999     0.15900
O1843       O  0.15371927  0.13393372  0.63887804    -0.60100
H1844       H  0.16240124  0.14201911  0.58890568     0.14400
H1845       H  0.25822226  0.11742580  0.50556280     0.46200
H1846       H  0.22827295  0.06683759  0.57660274     0.41600
H1847       H  0.13501996  0.12753463  0.63854032     0.45100
H1848       H  0.14025105  0.10778240  0.53434588     0.36500
C1849       C  0.18352458  0.36652306  0.34154602    -0.27700
C1850       C  0.19304128  0.34078007  0.33586088     0.01900
C1851       C  0.19558182  0.33271911  0.30914660     0.30000
C1852       C  0.18866524  0.35016523  0.28866317    -0.19500
C1853       C  0.17909819  0.37601860  0.29410166    -0.28900
C1854       C  0.17666218  0.38413428  0.32096531     0.44000
C1855       C  0.19900561  0.32165562  0.35756829     0.05200
O1856       O  0.20345694  0.30722309  0.30289848    -0.57400
H1857       H  0.19044422  0.34311930  0.26835767     0.18100
O1858       O  0.16823815  0.40937922  0.32738714    -0.64100
H1859       H  0.18143218  0.37298838  0.36201447     0.16600
C1860       C  0.22423778  0.30943307  0.35930714     0.28800
C1861       C  0.22776585  0.28713361  0.37558081    -0.25000
C1862       C  0.20664006  0.27722529  0.39098109    -0.24300
C1863       C  0.18216153  0.29094992  0.39124183     0.40300
C1864       C  0.17843202  0.31300538  0.37452698    -0.26800
O1865       O  0.24512696  0.31816604  0.34396642    -0.58700
H1866       H  0.24668051  0.27674713  0.37518283     0.15900
O1867       O  0.16101653  0.28139133  0.40570692    -0.60100
H1868       H  0.15892604  0.32221899  0.37349410     0.14400
H1869       H  0.14897949  0.40756409  0.33151106     0.46200
H1870       H  0.25421398  0.33185757  0.35494015     0.41600
H1871       H  0.16271395  0.28982084  0.42347533     0.45100
H1872       H  0.22179594  0.30895440  0.29565138     0.36500
C1873       C  0.15611262  0.67822471  0.70485921    -0.27700
C1874       C  0.15968574  0.65828518  0.68558918     0.01900
C1875       C  0.14340761  0.65824518  0.66287677     0.30000
C1876       C  0.12486410  0.67883863  0.65901679    -0.19500
C1877       C  0.12271091  0.69996674  0.67735184    -0.28900
C1878       C  0.13784122  0.69892439  0.70093497     0.44000
C1879       C  0.18300042  0.64025599  0.68770093     0.05200
O1880       O  0.14583043  0.63835164  0.64421997    -0.57400
H1881       H  0.11315220  0.67895220  0.64099072     0.18100
O1882       O  0.13556801  0.71847601  0.71995522    -0.64100
H1883       H  0.16851475  0.67848045  0.72242730     0.16600
C1884       C  0.20466657  0.64343895  0.67015164     0.28800
C1885       C  0.22820835  0.62918935  0.67415783    -0.25000
C1886       C  0.23078462  0.61156661  0.69562085    -0.24300
C1887       C  0.20887520  0.60768561  0.71279289     0.40300
C1888       C  0.18518967  0.62216634  0.70886834    -0.26800
O1889       O  0.20346606  0.66139366  0.64968415    -0.58700
H1890       H  0.24486620  0.63246558  0.66075664     0.15900
O1891       O  0.21083149  0.59086289  0.73411121    -0.60100
H1892       H  0.16878631  0.61984857  0.72275072     0.14400
H1893       H  0.12035685  0.71292787  0.73132612     0.46200
H1894       H  0.20889375  0.67871897  0.65754594     0.41600
H1895       H  0.21746268  0.60213920  0.74890889     0.45100
H1896       H  0.15498794  0.64664965  0.62882507     0.36500
C1897       C  0.17983065  0.76969462  0.50701501    -0.27700
C1898       C  0.16288003  0.75286234  0.52170670     0.01900
C1899       C  0.16493059  0.72510986  0.51802580     0.30000
C1900       C  0.18300860  0.71460477  0.49965751    -0.19500
C1901       C  0.20000399  0.73117429  0.48472031    -0.28900
C1902       C  0.19828207  0.75906742  0.48860018     0.44000
C1903       C  0.14394557  0.76358834  0.54197341     0.05200
O1904       O  0.14972229  0.70788505  0.53283583    -0.57400
H1905       H  0.18399183  0.69311401  0.49758166     0.18100
O1906       O  0.21449464  0.77610537  0.47470132    -0.64100
H1907       H  0.17869907  0.79110362  0.50976779     0.16600
C1908       C  0.15312784  0.77862257  0.56372429     0.28800
C1909       C  0.13639488  0.78304840  0.58567856    -0.25000
C1910       C  0.11042300  0.77228441  0.58668744    -0.24300
C1911       C  0.10046310  0.75949466  0.56374125     0.40300
C1912       C  0.11717162  0.75531298  0.54170394    -0.26800
O1913       O  0.17900541  0.78740595  0.56462662    -0.58700
H1914       H  0.14453952  0.79344683  0.60270428     0.15900
O1915       O  0.07517931  0.74913462  0.56326095    -0.60100
H1916       H  0.10964188  0.74408923  0.52490235     0.14400
H1917       H  0.20420686  0.78099023  0.45866416     0.46200
H1918       H  0.18919280  0.77265677  0.57285026     0.41600
H1919       H  0.06376936  0.76377285  0.55658519     0.45100
H1920       H  0.16010412  0.70472345  0.54925422     0.36500
C1921       C  0.09692566  0.90676426  0.66171130    -0.27700
C1922       C  0.09357782  0.91991251  0.68623110     0.01900
C1923       C  0.07972035  0.90669076  0.70679170     0.30000
C1924       C  0.07105270  0.88034622  0.70320998    -0.19500
C1925       C  0.07646838  0.86648057  0.67947399    -0.28900
C1926       C  0.08867623  0.88027396  0.65829718     0.44000
C1927       C  0.10671426  0.94618683  0.69102082     0.05200
O1928       O  0.07596951  0.91870227  0.73105593    -0.57400
H1929       H  0.06175325  0.87015236  0.71978461     0.18100
O1930       O  0.09353523  0.86777122  0.63447678    -0.64100
H1931       H  0.10682381  0.91678040  0.64538456     0.16600
C1932       C  0.13407943  0.94963468  0.68544359     0.28800
C1933       C  0.14683605  0.97350616  0.69219361    -0.25000
C1934       C  0.13293458  0.99436017  0.70482020    -0.24300
C1935       C  0.10542570  0.99126603  0.70981906     0.40300
C1936       C  0.09249769  0.96744175  0.70270002    -0.26800
O1937       O  0.14900409  0.92908675  0.67511812    -0.58700
H1938       H  0.16805792  0.97523751  0.68844836     0.15900
O1939       O  0.09089670  0.01155071  0.72113968    -0.60100
H1940       H  0.07135717  0.96541977  0.70669291     0.14400
H1941       H  0.07673268  0.86953932  0.62432514     0.46200
H1942       H  0.15282723  0.93418253  0.65645575     0.41600
H1943       H  0.08926705  0.00682098  0.74018818     0.45100
H1944       H  0.09206857  0.91421572  0.74148001     0.36500
C1945       C  0.97583720  0.66754433  0.70777523    -0.27700
C1946       C  0.96704977  0.67200732  0.73394564     0.01900
C1947       C  0.97708735  0.69414880  0.74802379     0.30000
C1948       C  0.99438263  0.71215528  0.73542710    -0.19500
C1949       C  0.00214941  0.70850217  0.70876921    -0.28900
C1950       C  0.99316074  0.68549994  0.69516869     0.44000
C1951       C  0.94574122  0.65475240  0.74537287     0.05200
O1952       O  0.97051383  0.69795029  0.77429149    -0.57400
H1953       H  0.00153552  0.72921242  0.74657951     0.18100
O1954       O  0.00042465  0.68072260  0.66927548    -0.64100
H1955       H  0.96834937  0.65062035  0.69663668     0.16600
C1956       C  0.92177923  0.66609995  0.75472917     0.28800
C1957       C  0.90084362  0.64979151  0.76309960    -0.25000
C1958       C  0.90255161  0.62180839  0.76137783    -0.24300
C1959       C  0.92686809  0.61034457  0.75273725     0.40300
C1960       C  0.94815971  0.62680126  0.74481103    -0.26800
O1961       O  0.91784977  0.69316682  0.75414881    -0.58700
H1962       H  0.88247684  0.65936749  0.76933193     0.15900
O1963       O  0.92973314  0.58320873  0.75080138    -0.60100
H1964       H  0.96639801  0.61770189  0.73754566     0.14400
H1965       H  0.98624441  0.68904754  0.65843346     0.46200
H1966       H  0.91107088  0.69697547  0.73607556     0.41600
H1967       H  0.93681111  0.57756544  0.76826617     0.45100
H1968       H  0.96089960  0.71523398  0.77514940     0.36500
C1969       C  0.16663664  0.78301885  0.82788400    -0.27700
C1970       C  0.14272116  0.79721173  0.83001446     0.01900
C1971       C  0.13933310  0.81587281  0.85063036     0.30000
C1972       C  0.16050217  0.82140320  0.86785249    -0.19500
C1973       C  0.18539422  0.80882724  0.86439137    -0.28900
C1974       C  0.18793943  0.78869960  0.84475540     0.44000
C1975       C  0.12426246  0.79638241  0.80739942     0.05200
O1976       O  0.11572034  0.82942423  0.85345253    -0.57400
H1977       H  0.15779775  0.83655156  0.88302924     0.18100
O1978       O  0.21124884  0.77468871  0.84155249    -0.64100
H1979       H  0.16939082  0.76864262  0.81196336     0.16600
C1980       C  0.12632327  0.81623988  0.78787845     0.28800
C1981       C  0.11249551  0.81355184  0.76410772    -0.25000
C1982       C  0.09641760  0.79119109  0.75938883    -0.24300
C1983       C  0.09327256  0.77185280  0.77937731     0.40300
C1984       C  0.10753710  0.77434515  0.80319225    -0.26800
O1985       O  0.14287039  0.83774354  0.79139101    -0.58700
H1986       H  0.11497288  0.82864138  0.74891989     0.15900
O1987       O  0.07811595  0.74953008  0.77498113    -0.60100
H1988       H  0.10628224  0.75871929  0.81795223     0.14400
H1989       H  0.22042429  0.78308016  0.82620537     0.46200
H1990       H  0.16046650  0.83195916  0.78435515     0.41600
H1991       H  0.06023803  0.75394369  0.78225432     0.45100
H1992       H  0.11838304  0.84650418  0.84396140     0.36500
C1993       C  0.88164387  0.05588849  0.27049887    -0.27700
C1994       C  0.88384245  0.06445136  0.29700873     0.01900
C1995       C  0.87400066  0.04775690  0.31732898     0.30000
C1996       C  0.86096018  0.02387637  0.31093932    -0.19500
C1997       C  0.85778207  0.01583035  0.28434963    -0.28900
C1998       C  0.86882930  0.03187811  0.26408587     0.44000
C1999       C  0.89335927  0.09204015  0.30291099     0.05200
O2000       O  0.87628168  0.05499139  0.34352562    -0.57400
H2001       H  0.85284975  0.01184448  0.32688507     0.18100
O2002       O  0.86595750  0.02511946  0.23782006    -0.64100
H2003       H  0.88854985  0.06856248  0.25451068     0.16600
C2004       C  0.91702850  0.10240862  0.29175207     0.28800
C2005       C  0.92350928  0.12952681  0.29517029    -0.25000
C2006       C  0.90651781  0.14680481  0.30946205    -0.24300
C2007       C  0.88365767  0.13585647  0.32189336     0.40300
C2008       C  0.87720340  0.10896658  0.31832781    -0.26800
O2009       O  0.93400398  0.08613806  0.27764984    -0.58700
H2010       H  0.94133213  0.13721307  0.28568088     0.15900
O2011       O  0.86678419  0.15140973  0.33687222    -0.60100
H2012       H  0.85880223  0.10156563  0.32691252     0.14400
H2013       H  0.84883652  0.03328635  0.23233004     0.46200
H2014       H  0.93230790  0.09173143  0.25885319     0.41600
H2015       H  0.87460606  0.15160558  0.35492786     0.45100
H2016       H  0.89441327  0.04924092  0.34878169     0.36500
C2017       C  0.77992548  0.81188149  0.11792846    -0.27700
C2018       C  0.77264236  0.81270304  0.14491689     0.01900
C2019       C  0.76138946  0.78976452  0.15655998     0.30000
C2020       C  0.75853357  0.76643307  0.14166030    -0.19500
C2021       C  0.76732610  0.76497779  0.11509925    -0.28900
C2022       C  0.77751491  0.78828982  0.10307108     0.44000
C2023       C  0.77892101  0.83646101  0.16154287     0.05200
O2024       O  0.75433398  0.78941355  0.18293379    -0.57400
H2025       H  0.75039223  0.74902990  0.15147700     0.18100
O2026       O  0.78658127  0.78797872  0.07732672    -0.64100
H2027       H  0.78828990  0.82939827  0.10851331     0.16600
C2028       C  0.80490550  0.84727628  0.16193734     0.28800
C2029       C  0.81161688  0.86676783  0.18073277    -0.25000
C2030       C  0.79296090  0.87522962  0.19982142    -0.24300
C2031       C  0.76658972  0.86560473  0.19848097     0.40300
C2032       C  0.75969778  0.84662942  0.17928018    -0.26800
O2033       O  0.82436226  0.83785296  0.14510953    -0.58700
H2034       H  0.83194630  0.87402855  0.18142379     0.15900
O2035       O  0.74757459  0.87400412  0.21633876    -0.60100
H2036       H  0.73947034  0.83907142  0.17890592     0.14400
H2037       H  0.77115376  0.79365556  0.06649867     0.46200
H2038       H  0.83219199  0.82228648  0.15432538     0.41600
H2039       H  0.74073746  0.89104787  0.20911612     0.45100
H2040       H  0.77091804  0.78486875  0.19255701     0.36500
C2041       C  0.96012516  0.83741314  0.20741403    -0.27700
C2042       C  0.95751061  0.83916490  0.23513167     0.01900
C2043       C  0.97396151  0.82311864  0.25117989     0.30000
C2044       C  0.99243550  0.80554094  0.23937910    -0.19500
C2045       C  0.99515683  0.80413066  0.21159711    -0.28900
C2046       C  0.97871288  0.82026027  0.19566804     0.44000
C2047       C  0.93640510  0.85673638  0.24652052     0.05200
O2048       O  0.97217810  0.82449655  0.27834563    -0.57400
H2049       H  0.00485927  0.79325035  0.25192984     0.18100
O2050       O  0.98004183  0.81882554  0.16846003    -0.64100
H2051       H  0.94716619  0.84894205  0.19469108     0.16600
C2052       C  0.93398100  0.88345670  0.23833465     0.28800
C2053       C  0.91141290  0.89836268  0.24546530    -0.25000
C2054       C  0.89059417  0.88697513  0.26044065    -0.24300
C2055       C  0.89398801  0.86077878  0.27022410     0.40300
C2056       C  0.91675979  0.84597484  0.26329009    -0.26800
O2057       O  0.95354743  0.89508291  0.22312877    -0.58700
H2058       H  0.90970845  0.91852962  0.23801704     0.15900
O2059       O  0.87498112  0.84917786  0.28610047    -0.60100
H2060       H  0.91831318  0.82548431  0.26986309     0.14400
H2061       H  0.96815683  0.80382816  0.16347287     0.46200
H2062       H  0.94566066  0.89736832  0.20524310     0.41600
H2063       H  0.86470685  0.83727497  0.27416290     0.45100
H2064       H  0.98390047  0.83955936  0.28352139     0.36500
C2065       C  0.75124544  0.04223187  0.19641065    -0.27700
C2066       C  0.75012646  0.03425591  0.16963076     0.01900
C2067       C  0.75949802  0.00865083  0.16263930     0.30000
C2068       C  0.77017010  0.99185431  0.18207155    -0.19500
C2069       C  0.77162142  0.99995783  0.20884732    -0.28900
C2070       C  0.76177999  0.02540989  0.21589218     0.44000
C2071       C  0.74110566  0.05363394  0.14913220     0.05200
O2072       O  0.75866325  0.99992430  0.13679652    -0.57400
H2073       H  0.77751842  0.97241565  0.17605365     0.18100
O2074       O  0.76317249  0.03452976  0.24157333    -0.64100
H2075       H  0.74487205  0.06206794  0.20218595     0.16600
C2076       C  0.71769775  0.06884540  0.15268498     0.28800
C2077       C  0.71196714  0.08992466  0.13534692    -0.25000
C2078       C  0.72914032  0.09607192  0.11407566    -0.24300
C2079       C  0.75138165  0.07941448  0.10929423     0.40300
C2080       C  0.75734621  0.05870799  0.12690049    -0.26800
O2081       O  0.70033306  0.06321336  0.17307080    -0.58700
H2082       H  0.69451055  0.10211226  0.13916038     0.15900
O2083       O  0.76884812  0.08462480  0.08891730    -0.60100
H2084       H  0.77558366  0.04749904  0.12388439     0.14400
H2085       H  0.78059007  0.04380338  0.24280218     0.46200
H2086       H  0.70162751  0.07849355  0.18556614     0.41600
H2087       H  0.76270640  0.07336900  0.07390236     0.45100
H2088       H  0.74053945  0.99243608  0.13451218     0.36500
C2089       C  0.68846545  0.88778481  0.32058000    -0.27700
C2090       C  0.67195319  0.88410728  0.29852028     0.01900
C2091       C  0.67854388  0.89645909  0.27425894     0.30000
C2092       C  0.70247023  0.91080601  0.27190046    -0.19500
C2093       C  0.72005846  0.91233537  0.29341610    -0.28900
C2094       C  0.71247623  0.90163987  0.31810187     0.44000
C2095       C  0.65100904  0.86349773  0.30013238     0.05200
O2096       O  0.66213593  0.89378123  0.25266913    -0.57400
H2097       H  0.70815124  0.91901087  0.25280501     0.18100
O2098       O  0.72928083  0.90316474  0.33945750    -0.64100
H2099       H  0.68368182  0.87822480  0.33928514     0.16600
C2100       C  0.65473984  0.83913013  0.28675602     0.28800
C2101       C  0.63771512  0.81775603  0.29187708    -0.25000
C2102       C  0.61670840  0.82008716  0.31034000    -0.24300
C2103       C  0.61229474  0.84489511  0.32297252     0.40300
C2104       C  0.62962796  0.86631016  0.31803026    -0.26800
O2105       O  0.67644232  0.83530613  0.27045417    -0.58700
H2106       H  0.64152619  0.79897863  0.28181930     0.15900
O2107       O  0.59238753  0.84790601  0.34151162    -0.60100
H2108       H  0.62695139  0.88485343  0.32884341     0.14400
H2109       H  0.72189073  0.91764885  0.35077997     0.46200
H2110       H  0.66914122  0.83389083  0.25224081     0.41600
H2111       H  0.57723882  0.85580167  0.33169267     0.45100
H2112       H  0.67199732  0.88232583  0.23986275     0.36500
C2113       C  0.89530347  0.79574339  0.57683539    -0.27700
C2114       C  0.90511138  0.81287858  0.59662723     0.01900
C2115       C  0.88858942  0.83349723  0.60638144     0.30000
C2116       C  0.86191718  0.83489361  0.59842178    -0.19500
C2117       C  0.85144553  0.81622113  0.58044496    -0.28900
C2118       C  0.86877364  0.79746532  0.56850334     0.44000
C2119       C  0.93145861  0.80729178  0.60877381     0.05200
O2120       O  0.89843618  0.85226436  0.62370604    -0.57400
H2121       H  0.84913296  0.85006198  0.60709924     0.18100
O2122       O  0.85948176  0.77914179  0.55050097    -0.64100
H2123       H  0.90778528  0.77993425  0.56891543     0.16600
C2124       C  0.93369587  0.80430647  0.63652438     0.28800
C2125       C  0.95824025  0.79805201  0.64778962    -0.25000
C2126       C  0.98074707  0.79329961  0.63181973    -0.24300
C2127       C  0.97854298  0.79554621  0.60403820     0.40300
C2128       C  0.95404749  0.80270319  0.59269936    -0.26800
O2129       O  0.91175276  0.80620187  0.65280269    -0.58700
H2130       H  0.95938538  0.79570018  0.66915530     0.15900
O2131       O  0.00009966  0.79076883  0.58784860    -0.60100
H2132       H  0.95261510  0.80444535  0.57130620     0.14400
H2133       H  0.86250905  0.78738564  0.53284847     0.46200
H2134       H  0.90352372  0.78821510  0.65251039     0.41600
H2135       H  0.00944408  0.80813814  0.58645557     0.45100
H2136       H  0.88747881  0.85083725  0.64012174     0.36500
C2137       C  0.79845549  0.85957751  0.44152834    -0.27700
C2138       C  0.79775709  0.88755034  0.44111487     0.01900
C2139       C  0.78955583  0.90136732  0.46418962     0.30000
C2140       C  0.78077691  0.88720700  0.48656567    -0.19500
C2141       C  0.78059757  0.85914530  0.48665171    -0.28900
C2142       C  0.79037915  0.84540309  0.46405475     0.44000
C2143       C  0.80284323  0.90165597  0.41563834     0.05200
O2144       O  0.78952656  0.92871319  0.46489387    -0.57400
H2145       H  0.77394370  0.89824215  0.50385144     0.18100
O2146       O  0.79056247  0.81805991  0.46303568    -0.64100
H2147       H  0.80423388  0.84852768  0.42388406     0.16600
C2148       C  0.82546283  0.89589677  0.39992747     0.28800
C2149       C  0.82726443  0.90566060  0.37390032    -0.25000
C2150       C  0.80677748  0.92134382  0.36310674    -0.24300
C2151       C  0.78515243  0.92877001  0.37961507     0.40300
C2152       C  0.78322454  0.91874071  0.40548387    -0.26800
O2153       O  0.84580738  0.88062746  0.40985027    -0.58700
H2154       H  0.84432494  0.90010624  0.36180091     0.15900
O2155       O  0.76460716  0.94392430  0.37002866    -0.60100
H2156       H  0.76553816  0.92318829  0.41712968     0.14400
H2157       H  0.80901335  0.81283116  0.46778628     0.46200
H2158       H  0.84503332  0.86349613  0.39996965     0.41600
H2159       H  0.76896841  0.96249483  0.37521242     0.45100
H2160       H  0.80827966  0.93382860  0.46849119     0.36500
C2161       C  0.66033463  0.81933704  0.66680380    -0.27700
C2162       C  0.64291721  0.79867671  0.65977230     0.01900
C2163       C  0.64408312  0.78775602  0.63404117     0.30000
C2164       C  0.66339056  0.79689640  0.61597161    -0.19500
C2165       C  0.68200103  0.81637115  0.62368398    -0.28900
C2166       C  0.67994079  0.82804030  0.64909186     0.44000
C2167       C  0.62621216  0.78695329  0.68086131     0.05200
O2168       O  0.62725888  0.76747198  0.62681309    -0.57400
H2169       H  0.66482625  0.78766743  0.59651325     0.18100
O2170       O  0.69708667  0.84791860  0.65678266    -0.64100
H2171       H  0.65946730  0.82791831  0.68659149     0.16600
C2172       C  0.63844677  0.77166920  0.70067494     0.28800
C2173       C  0.62468819  0.76597346  0.72409963    -0.25000
C2174       C  0.59873038  0.77570236  0.72841186    -0.24300
C2175       C  0.58555848  0.78884253  0.70745249     0.40300
C2176       C  0.59942718  0.79446624  0.68380263    -0.26800
O2177       O  0.66440636  0.76342814  0.69782890    -0.58700
H2178       H  0.63502390  0.75526166  0.73962073     0.15900
O2179       O  0.55990152  0.79785180  0.71049228    -0.60100
H2180       H  0.58986429  0.80621209  0.66854224     0.14400
H2181       H  0.71029918  0.83913761  0.66845791     0.46200
H2182       H  0.67520863  0.77696392  0.70734441     0.41600
H2183       H  0.56159655  0.81656172  0.71665781     0.45100
H2184       H  0.63686078  0.75082368  0.63139348     0.36500
C2185       C  0.72518112  0.94522306  0.62254261    -0.27700
C2186       C  0.74132550  0.94925333  0.64495374     0.01900
C2187       C  0.76354239  0.93246727  0.64854997     0.30000
C2188       C  0.76805124  0.91098064  0.63121034    -0.19500
C2189       C  0.75077181  0.90573161  0.60980943    -0.28900
C2190       C  0.72991777  0.92399645  0.60490810     0.44000
C2191       C  0.73335939  0.96930342  0.66553173     0.05200
O2192       O  0.78041553  0.93620931  0.66959593    -0.57400
H2193       H  0.78449678  0.89765693  0.63538737     0.18100
O2194       O  0.71292812  0.92045247  0.58393924    -0.64100
H2195       H  0.70790075  0.95773484  0.61936601     0.16600
C2196       C  0.72597743  0.99548735  0.65859374     0.28800
C2197       C  0.71559064  0.01289607  0.67794657    -0.25000
C2198       C  0.71247073  0.00477068  0.70449381    -0.24300
C2199       C  0.72093444  0.97896010  0.71165882     0.40300
C2200       C  0.73112901  0.96150541  0.69227962    -0.26800
O2201       O  0.72933099  0.00438043  0.63303670    -0.58700
H2202       H  0.70964607  0.03278521  0.67205383     0.15900
O2203       O  0.71825932  0.97010112  0.73728829    -0.60100
H2204       H  0.73628704  0.94136804  0.69804990     0.14400
H2205       H  0.72125925  0.93026723  0.56896981     0.46200
H2206       H  0.71108015  0.00668900  0.62590443     0.41600
H2207       H  0.70012898  0.96228867  0.73829808     0.45100
H2208       H  0.79339818  0.94981616  0.66352549     0.36500
C2209       C  0.77559149  0.65402779  0.67416688    -0.27700
C2210       C  0.79507988  0.66664424  0.65852488     0.01900
C2211       C  0.82211688  0.65966251  0.66203844     0.30000
C2212       C  0.82924913  0.64114611  0.68168022    -0.19500
C2213       C  0.80975566  0.62983059  0.69824744    -0.28900
C2214       C  0.78273650  0.63593269  0.69393209     0.44000
C2215       C  0.78705599  0.68935280  0.64135521     0.05200
O2216       O  0.84181366  0.67264091  0.64818492    -0.57400
H2217       H  0.85014339  0.63689393  0.68503678     0.18100
O2218       O  0.76317023  0.62501637  0.70962343    -0.64100
H2219       H  0.75473210  0.65902819  0.67171127     0.16600
C2220       C  0.79474749  0.69123986  0.61445025     0.28800
C2221       C  0.78857317  0.71421622  0.59983460    -0.25000
C2222       C  0.77440963  0.73550060  0.61156925    -0.24300
C2223       C  0.76527652  0.73269505  0.63804498     0.40300
C2224       C  0.77165950  0.70989979  0.65257297    -0.26800
O2225       O  0.80851736  0.67091867  0.60230494    -0.58700
H2226       H  0.79563824  0.71567999  0.57952012     0.15900
O2227       O  0.75007136  0.75211093  0.65004155    -0.60100
H2228       H  0.76515619  0.70867250  0.67309981     0.14400
H2229       H  0.75962041  0.60719078  0.70181245     0.46200
H2230       H  0.79470147  0.65802429  0.59654967     0.41600
H2231       H  0.76245487  0.76194674  0.66185414     0.45100
H2232       H  0.84948301  0.65908012  0.63594985     0.36500
C2233       C  0.64741714  0.72683985  0.42756833    -0.27700
C2234       C  0.64411551  0.74861902  0.44498889     0.01900
C2235       C  0.62384750  0.76732711  0.43960326     0.30000
C2236       C  0.60797280  0.76452418  0.41694360    -0.19500
C2237       C  0.61201117  0.74349437  0.39880850    -0.28900
C2238       C  0.63162034  0.72416015  0.40471317     0.44000
C2239       C  0.66369243  0.75354994  0.46676766     0.05200
O2240       O  0.62113953  0.78991126  0.45487958    -0.57400
H2241       H  0.59345473  0.77994379  0.41281062     0.18100
O2242       O  0.63628087  0.70310573  0.38784910    -0.64100
H2243       H  0.66286588  0.71223549  0.43129090     0.16600
C2244       C  0.65538568  0.76110145  0.49258118     0.28800
C2245       C  0.67387331  0.77151743  0.51068262    -0.25000
C2246       C  0.70103403  0.77301832  0.50407223    -0.24300
C2247       C  0.70977806  0.76263480  0.47951459     0.40300
C2248       C  0.69115126  0.75338692  0.46092874    -0.26800
O2249       O  0.62914468  0.75909794  0.50006718    -0.58700
H2250       H  0.66694245  0.77880869  0.52980353     0.15900
O2251       O  0.73622620  0.76365978  0.47256412    -0.60100
H2252       H  0.69811037  0.74743949  0.44137467     0.14400
H2253       H  0.62340195  0.68914964  0.39333658     0.46200
H2254       H  0.62687852  0.74036680  0.50594345     0.41600
H2255       H  0.74348871  0.74589630  0.47724810     0.45100
H2256       H  0.60346047  0.78834445  0.46366005     0.36500
loop_ 
_geom_bond_atom_site_label_1 
_geom_bond_atom_site_label_2 
_geom_bond_distance 
_geom_bond_site_symmetry_2 
_ccdc_geom_bond_type 
Fe1          O17   2.075       .  S
Fe1           O7   2.049       .  S
Fe1          O14   2.051       .  S
Fe1           O6   2.061       .  S
Fe1          O12   1.956       .  S
Fe2           O5   2.075       .  S
Fe2           O9   2.062       .  S
Fe2          O13   2.090       .  S
Fe2          O18   2.072       .  S
Fe2          O12   1.964       .  S
Fe3          O21   2.066       .  S
Fe3           O8   2.079       .  S
Fe3          O15   2.087       .  S
Fe3           O4   2.061       .  S
Fe3          O12   1.970       .  S
O4           C11   1.267       .  A
O5           C19   1.268       .  A
O6           C11   1.269       .  A
O7           C10   1.268       .  A
O8           C20   1.276       .  A
O9           C22   1.271       .  A
C10          O15   1.274       .  A
C10        C2222   1.489       .  S
C11        C2117   1.479       .  S
O13          C16   1.270       .  A
O14          C16   1.263       .  A
C16        C2189   1.495       .  S
O17          C22   1.274       .  A
O18          C20   1.276       .  A
C19          O21   1.266       .  A
C19        C2246   1.479       .  S
C20        C2141   1.487       .  S
C22        C2165   1.473       .  S
Fe23         O39   2.075       .  S
Fe23         O29   2.050       .  S
Fe23         O36   2.052       .  S
Fe23         O28   2.082       .  S
Fe23         O34   1.944       .  S
Fe24         O27   2.090       .  S
Fe24         O31   2.065       .  S
Fe24         O35   2.101       .  S
Fe24         O40   2.061       .  S
Fe24         O34   1.949       .  S
Fe25         O43   2.052       .  S
Fe25         O30   2.091       .  S
Fe25         O37   2.092       .  S
Fe25         O26   2.060       .  S
Fe25         O34   1.947       .  S
O26          C33   1.268       .  A
O27          C41   1.273       .  A
O28          C33   1.271       .  A
O29          C32   1.269       .  A
O30          C42   1.277       .  A
O31          C44   1.267       .  A
C32          O37   1.276       .  A
C32        C2030   1.477       .  S
C33        C2054   1.492       .  S
O35          C38   1.277       .  A
O36          C38   1.270       .  A
C38        C2150   1.486       .  S
O39          C44   1.270       .  A
O40          C42   1.272       .  A
C41          O43   1.267       .  A
C41        C2069   1.489       .  S
C42        C1997   1.488   1_565  S
C44        C2093   1.468       .  S
Fe45         O61   2.058       .  S
Fe45         O51   2.059       .  S
Fe45         O58   2.057       .  S
Fe45         O50   2.055       .  S
Fe45         O56   1.957       .  S
Fe46         O49   2.070       .  S
Fe46         O53   2.062       .  S
Fe46         O57   2.098       .  S
Fe46         O62   2.055       .  S
Fe46         O56   1.965       .  S
Fe47         O65   2.067       .  S
Fe47         O52   2.085       .  S
Fe47         O59   2.093       .  S
Fe47         O48   2.075       .  S
Fe47         O56   1.968       .  S
O48          C55   1.267       .  A
O49          C63   1.269       .  A
O50          C55   1.264       .  A
O51          C54   1.273       .  A
O52          C64   1.275       .  A
O53          C66   1.263       .  A
C54          O59   1.278       .  A
C54        C1877   1.485       .  S
C55        C1910   1.493       .  S
O57          C60   1.277       .  A
O58          C60   1.271       .  A
C60        C1925   1.484       .  S
O61          C66   1.264       .  A
O62          C64   1.272       .  A
C63          O65   1.268       .  A
C63        C1949   1.490       .  S
C64        C2126   1.476   1_455  S
C66        C1982   1.469       .  S
Fe67         O83   2.059       .  S
Fe67         O73   2.049       .  S
Fe67         O80   2.058       .  S
Fe67         O72   2.066       .  S
Fe67         O78   1.963       .  S
Fe68         O71   2.080       .  S
Fe68         O75   2.080       .  S
Fe68         O79   2.075       .  S
Fe68         O84   2.074       .  S
Fe68         O78   1.980       .  S
Fe69         O87   2.053       .  S
Fe69         O74   2.074       .  S
Fe69         O81   2.075       .  S
Fe69         O70   2.071       .  S
Fe69         O78   1.976       .  S
O70          C77   1.269       .  A
O71          C85   1.271       .  A
O72          C77   1.268       .  A
O73          C76   1.267       .  A
O74          C86   1.272       .  A
O75          C88   1.269       .  A
C76          O81   1.270       .  A
C76        C1742   1.465       .  S
C77        C1766   1.488       .  S
O79          C82   1.273       .  A
O80          C82   1.270       .  A
C82        C1805   1.482       .  S
O83          C88   1.266       .  A
O84          C86   1.272       .  A
C85          O87   1.267       .  A
C85        C1790   1.483       .  S
C86        C1829   1.487       .  S
C88        C1862   1.474       .  S
Fe89        O105   2.048       .  S
Fe89         O95   2.059       .  S
Fe89        O102   2.072       .  S
Fe89         O94   2.057       .  S
Fe89        O100   1.962       .  S
Fe90         O93   2.058       .  S
Fe90         O97   2.085       .  S
Fe90        O101   2.059       .  S
Fe90        O106   2.084       .  S
Fe90        O100   1.971       .  S
Fe91        O109   2.090       .  S
Fe91         O96   2.056       .  S
Fe91        O103   2.064       .  S
Fe91         O92   2.095       .  S
Fe91        O100   1.975       .  S
O92          C99   1.277       .  A
O93         C107   1.268       .  A
O94          C99   1.270       .  A
O95          C98   1.267       .  A
O96         C108   1.269       .  A
O97         C110   1.273       .  A
C98         O103   1.266       .  A
C98        C1646   1.475       .  S
C99        C1838   1.496       .  S
O101        C104   1.267       .  A
O102        C104   1.269       .  A
C104       C1694   1.486       .  S
O105        C110   1.268       .  A
O106        C108   1.273       .  A
C107        O109   1.274       .  A
C107       C1718   1.493       .  S
C108       C1934   1.485   1_545  S
C110       C1661   1.479       .  S
Fe111       O127   2.070       .  S
Fe111       O117   2.050       .  S
Fe111       O124   2.063       .  S
Fe111       O116   2.061       .  S
Fe111       O122   1.952       .  S
Fe112       O115   2.059       .  S
Fe112       O119   2.070       .  S
Fe112       O123   2.075       .  S
Fe112       O128   2.071       .  S
Fe112       O122   1.954       .  S
Fe113       O131   2.094       .  S
Fe113       O118   2.073       .  S
Fe113       O125   2.069       .  S
Fe113       O114   2.088       .  S
Fe113       O122   1.964       .  S
O114        C121   1.275       .  A
O115        C129   1.265       .  A
O116        C121   1.270       .  A
O117        C120   1.267       .  A
O118        C130   1.275       .  A
O119        C132   1.272       .  A
C120        O125   1.270       .  A
C120       C1622   1.472       .  S
C121       C2006   1.494       .  S
O123        C126   1.268       .  A
O124        C126   1.266       .  A
C126       C1574   1.494       .  S
O127        C132   1.272       .  A
O128        C130   1.276       .  A
C129        O131   1.272       .  A
C129       C1589   1.500       .  S
C130       C1814   1.480   1_655  S
C132       C1541   1.475       .  S
Fe133       O149   2.065       .  S
Fe133       O139   2.059       .  S
Fe133       O146   2.061       .  S
Fe133       O138   2.064       .  S
Fe133       O144   1.954       .  S
Fe134       O137   2.076       .  S
Fe134       O141   2.073       .  S
Fe134       O145   2.082       .  S
Fe134       O150   2.061       .  S
Fe134       O144   1.959       .  S
Fe135       O153   2.065       .  S
Fe135       O140   2.096       .  S
Fe135       O147   2.090       .  S
Fe135       O136   2.079       .  S
Fe135       O144   1.964       .  S
O136        C143   1.271       .  A
O137        C151   1.271       .  A
O138        C143   1.268       .  A
O139        C142   1.272       .  A
O140        C152   1.277       .  A
O141        C154   1.267       .  A
C142        O147   1.276       .  A
C142       C1493   1.483       .  S
C143       C1517   1.496       .  S
O145        C148   1.275       .  A
O146        C148   1.273       .  A
C148       C1445   1.488       .  S
O149        C154   1.266       .  A
O150        C152   1.270       .  A
C151        O153   1.269       .  A
C151       C1565   1.485       .  S
C152       C1430   1.488       .  S
C154       C1478   1.472       .  S
Fe155       O171   2.059       .  S
Fe155       O161   2.052       .  S
Fe155       O168   2.066       .  S
Fe155       O160   2.071       .  S
Fe155       O166   1.974       .  S
Fe156       O159   2.051       .  S
Fe156       O163   2.084       .  S
Fe156       O167   2.059       .  S
Fe156       O172   2.079       .  S
Fe156       O166   1.981       .  S
Fe157       O175   2.079       .  S
Fe157       O162   2.071       .  S
Fe157       O169   2.071       .  S
Fe157       O158   2.083       .  S
Fe157       O166   1.984       .  S
O158        C165   1.274       .  A
O159        C173   1.266       .  A
O160        C165   1.272       .  A
O161        C164   1.265       .  A
O162        C174   1.273       .  A
O163        C176   1.273       .  A
C164        O169   1.268       .  A
C164       C1550   1.478       .  S
C165       C1421   1.498       .  S
O167        C170   1.266       .  A
O168        C170   1.269       .  A
C170       C1373   1.485       .  S
O171        C176   1.269       .  A
O172        C174   1.273       .  A
C173        O175   1.270       .  A
C173       C1397   1.485       .  S
C174       C1325   1.496       .  S
C176       C1349   1.484       .  S
Fe177       O193   2.065       .  S
Fe177       O183   2.058       .  S
Fe177       O190   2.062       .  S
Fe177       O182   2.062       .  S
Fe177       O188   1.954       .  S
Fe178       O181   2.074       .  S
Fe178       O185   2.081       .  S
Fe178       O189   2.080       .  S
Fe178       O194   2.070       .  S
Fe178       O188   1.960       .  S
Fe179       O197   2.062       .  S
Fe179       O184   2.082       .  S
Fe179       O191   2.079       .  S
Fe179       O180   2.073       .  S
Fe179       O188   1.963       .  S
O180        C187   1.269       .  A
O181        C195   1.269       .  A
O182        C187   1.267       .  A
O183        C186   1.272       .  A
O184        C196   1.276       .  A
O185        C198   1.271       .  A
C186        O191   1.274       .  A
C186       C1277   1.484       .  S
C187       C1301   1.493       .  S
O189        C192   1.272       .  A
O190        C192   1.271       .  A
C192       C1229   1.489       .  S
O193        C198   1.268       .  A
O194        C196   1.274       .  A
C195        O197   1.267       .  A
C195       C1253   1.482       .  S
C196       C1205   1.486       .  S
C198       C1886   1.479       .  S
Fe199       O215   2.076       .  S
Fe199       O205   2.047       .  S
Fe199       O212   2.050       .  S
Fe199       O204   2.065       .  S
Fe199       O210   1.956       .  S
Fe200       O203   2.060       .  S
Fe200       O207   2.065       .  S
Fe200       O211   2.084       .  S
Fe200       O216   2.071       .  S
Fe200       O210   1.961       .  S
Fe201       O219   2.089       .  S
Fe201       O206   2.072       .  S
Fe201       O213   2.073       .  S
Fe201       O202   2.077       .  S
Fe201       O210   1.966       .  S
O202        C209   1.272       .  A
O203        C217   1.267       .  A
O204        C209   1.270       .  A
O205        C208   1.267       .  A
O206        C218   1.274       .  A
O207        C220   1.271       .  A
C208        O213   1.271       .  A
C208       C1190   1.477       .  S
C209       C1214   1.492       .  S
O211        C214   1.270       .  A
O212        C214   1.263       .  A
C214       C1781   1.489       .  S
O215        C220   1.273       .  A
O216        C218   1.276       .  A
C217        O219   1.271       .  A
C217       C1166   1.497       .  S
C218       C1454   1.478       .  S
C220       C1637   1.470       .  S
Fe221       O237   2.058       .  S
Fe221       O227   2.052       .  S
Fe221       O234   2.057       .  S
Fe221       O226   2.070       .  S
Fe221       O232   1.969       .  S
Fe222       O225   2.089       .  S
Fe222       O229   2.077       .  S
Fe222       O233   2.086       .  S
Fe222       O238   2.066       .  S
Fe222       O232   1.979       .  S
Fe223       O241   2.065       .  S
Fe223       O228   2.073       .  S
Fe223       O235   2.073       .  S
Fe223       O224   2.074       .  S
Fe223       O232   1.980       .  S
O224        C231   1.270       .  A
O225        C239   1.274       .  A
O226        C231   1.268       .  A
O227        C230   1.268       .  A
O228        C240   1.272       .  A
O229        C242   1.270       .  A
C230        O235   1.270       .  A
C230       C2102   1.482       .  S
C231       C2237   1.493       .  S
O233        C236   1.273       .  A
O234        C236   1.269       .  A
C236       C1334   1.488       .  S
O237        C242   1.267       .  A
O238        C240   1.271       .  A
C239        O241   1.269       .  A
C239       C1133   1.499       .  S
C240       C1094   1.483       .  S
C242       C1109   1.482       .  S
Fe243       O259   2.070       .  S
Fe243       O249   2.047       .  S
Fe243       O256   2.063       .  S
Fe243       O248   2.060       .  S
Fe243       O254   1.953       .  S
Fe244       O247   2.059       .  S
Fe244       O251   2.066       .  S
Fe244       O255   2.077       .  S
Fe244       O260   2.070       .  S
Fe244       O254   1.953       .  S
Fe245       O263   2.081       .  S
Fe245       O250   2.081       .  S
Fe245       O257   2.079       .  S
Fe245       O246   2.075       .  S
Fe245       O254   1.962       .  S
O246        C253   1.272       .  A
O247        C261   1.266       .  A
O248        C253   1.271       .  A
O249        C252   1.266       .  A
O250        C262   1.277       .  A
O251        C264   1.273       .  A
C252        O257   1.272       .  A
C252       C1061   1.488       .  S
C253       C1085   1.489       .  S
O255        C258   1.268       .  A
O256        C258   1.265       .  A
C258       C1037   1.496       .  S
O259        C264   1.273       .  A
O260        C262   1.277       .  A
C261        O263   1.268       .  A
C261       C1901   1.492       .  S
C262       C1238   1.485       .  S
C264       C1022   1.471       .  S
Fe265       O281   2.052       .  S
Fe265       O271   2.068       .  S
Fe265       O278   2.062       .  S
Fe265       O270   2.058       .  S
Fe265       O276   1.950       .  S
Fe266       O269   2.058       .  S
Fe266       O273   2.105       .  S
Fe266       O277   2.070       .  S
Fe266       O282   2.096       .  S
Fe266       O276   1.963       .  S
Fe267       O285   2.077       .  S
Fe267       O272   2.044       .  S
Fe267       O279   2.059       .  S
Fe267       O268   2.095       .  S
Fe267       O276   1.955       .  S
O268        C275   1.279       .  A
O269        C283   1.268       .  A
O270        C275   1.274       .  A
O271        C274   1.265       .  A
O272        C284   1.269       .  A
O273        C286   1.280       .  A
C274        O279   1.263       .  A
C274        C998   1.475       .  S
C275        C950   1.486       .  S
O277        C280   1.266       .  A
O278        C280   1.266       .  A
C280       C1958   1.492       .  S
O281        C286   1.274       .  A
O282        C284   1.278       .  A
C283        O285   1.271       .  A
C283       C1526   1.486       .  S
C284        C965   1.483       .  S
C286       C2213   1.476       .  S
Fe287       O303   2.056       .  S
Fe287       O293   2.058       .  S
Fe287       O300   2.064       .  S
Fe287       O292   2.050       .  S
Fe287       O298   1.954       .  S
Fe288       O291   2.064       .  S
Fe288       O295   2.076       .  S
Fe288       O299   2.070       .  S
Fe288       O304   2.054       .  S
Fe288       O298   1.961       .  S
Fe289       O307   2.075       .  S
Fe289       O294   2.087       .  S
Fe289       O301   2.082       .  S
Fe289       O290   2.085       .  S
Fe289       O298   1.967       .  S
O290        C297   1.270       .  A
O291        C305   1.267       .  A
O292        C297   1.264       .  A
O293        C296   1.273       .  A
O294        C306   1.276       .  A
O295        C308   1.269       .  A
C296        O301   1.276       .  A
C296        C893   1.485       .  S
C297        C926   1.494       .  S
O299        C302   1.271       .  A
O300        C302   1.270       .  A
C302        C974   1.481       .  S
O303        C308   1.266       .  A
O304        C306   1.271       .  A
C305        O307   1.269       .  A
C305       C1685   1.483       .  S
C306        C869   1.480       .  S
C308       C1502   1.476       .  S
Fe309       O325   2.047       .  S
Fe309       O315   2.082       .  S
Fe309       O322   2.070       .  S
Fe309       O314   2.052       .  S
Fe309       O320   1.953       .  S
Fe310       O313   2.077       .  S
Fe310       O317   2.081       .  S
Fe310       O321   2.075       .  S
Fe310       O326   2.079       .  S
Fe310       O320   1.959       .  S
Fe311       O329   2.064       .  S
Fe311       O316   2.070       .  S
Fe311       O323   2.068       .  S
Fe311       O312   2.083       .  S
Fe311       O320   1.959       .  S
O312        C319   1.269       .  A
O313        C327   1.269       .  A
O314        C319   1.265       .  A
O315        C318   1.274       .  A
O316        C328   1.276       .  A
O317        C330   1.272       .  A
C318        O323   1.272       .  A
C318       C1118   1.475       .  S
C319       C1406   1.487       .  S
O321        C324   1.272       .  A
O322        C324   1.271       .  A
C324        C821   1.495       .  S
O325        C330   1.268       .  A
O326        C328   1.276       .  A
C327        O329   1.267       .  A
C327        C845   1.495       .  S
C328        C941   1.485   1_554  S
C330       C2021   1.488       .  S
Fe331       O347   2.060       .  S
Fe331       O337   2.059       .  S
Fe331       O344   2.057       .  S
Fe331       O336   2.056       .  S
Fe331       O342   1.960       .  S
Fe332       O335   2.078       .  S
Fe332       O339   2.068       .  S
Fe332       O343   2.087       .  S
Fe332       O348   2.058       .  S
Fe332       O342   1.968       .  S
Fe333       O351   2.071       .  S
Fe333       O338   2.097       .  S
Fe333       O345   2.095       .  S
Fe333       O334   2.095       .  S
Fe333       O342   1.969       .  S
O334        C341   1.274       .  A
O335        C349   1.270       .  A
O336        C341   1.265       .  A
O337        C340   1.272       .  A
O338        C350   1.278       .  A
O339        C352   1.268       .  A
C340        O345   1.276       .  A
C340       C1853   1.494       .  S
C341       C1598   1.501       .  S
O343        C346   1.273       .  A
O344        C346   1.270       .  A
C346        C749   1.492       .  S
O347        C352   1.268       .  A
O348        C350   1.271       .  A
C349        O351   1.270       .  A
C349       C1046   1.492       .  S
C350        C782   1.485       .  S
C352        C797   1.476       .  S
Fe353       O369   2.063       .  S
Fe353       O359   2.062       .  S
Fe353       O366   2.068       .  S
Fe353       O358   2.070       .  S
Fe353       O364   1.975       .  S
Fe354       O357   2.055       .  S
Fe354       O361   2.082       .  S
Fe354       O365   2.063       .  S
Fe354       O370   2.078       .  S
Fe354       O364   1.981       .  S
Fe355       O373   2.079       .  S
Fe355       O360   2.063       .  S
Fe355       O367   2.060       .  S
Fe355       O356   2.073       .  S
Fe355       O364   1.982       .  S
O356        C363   1.271       .  A
O357        C371   1.267       .  A
O358        C363   1.270       .  A
O359        C362   1.268       .  A
O360        C372   1.270       .  A
O361        C374   1.273       .  A
C362        O367   1.267       .  A
C362       C1013   1.472       .  S
C363        C773   1.493       .  S
O365        C368   1.267       .  A
O366        C368   1.268       .  A
C368        C725   1.485       .  S
O369        C374   1.270       .  A
O370        C372   1.273       .  A
C371        O373   1.269       .  A
C371       C2045   1.481   1_455  S
C372        C830   1.484   1_455  S
C374        C701   1.487       .  S
Fe375       O391   2.051       .  S
Fe375       O381   2.063       .  S
Fe375       O388   2.061       .  S
Fe375       O380   2.061       .  S
Fe375       O386   1.963       .  S
Fe376       O379   2.052       .  S
Fe376       O383   2.078       .  S
Fe376       O387   2.061       .  S
Fe376       O392   2.080       .  S
Fe376       O386   1.968       .  S
Fe377       O395   2.072       .  S
Fe377       O382   2.061       .  S
Fe377       O389   2.066       .  S
Fe377       O378   2.077       .  S
Fe377       O386   1.966       .  S
O378        C385   1.272       .  A
O379        C393   1.264       .  A
O380        C385   1.272       .  A
O381        C384   1.268       .  A
O382        C394   1.272       .  A
O383        C396   1.275       .  A
C384        O389   1.267       .  A
C384       C1670   1.475       .  S
C385        C878   1.489       .  S
O387        C390   1.265       .  A
O388        C390   1.265       .  A
C390       C1262   1.487       .  S
O391        C396   1.273       .  A
O392        C394   1.276       .  A
C393        O395   1.267       .  A
C393        C686   1.486       .  S
C394        C758   1.478       .  S
C396       C1181   1.470       .  S
Fe397       O413   2.055       .  S
Fe397       O403   2.046       .  S
Fe397       O410   2.058       .  S
Fe397       O402   2.069       .  S
Fe397       O408   1.968       .  S
Fe398       O401   2.064       .  S
Fe398       O405   2.078       .  S
Fe398       O409   2.077       .  S
Fe398       O414   2.076       .  S
Fe398       O408   1.983       .  S
Fe399       O417   2.068       .  S
Fe399       O404   2.068       .  S
Fe399       O411   2.072       .  S
Fe399       O400   2.076       .  S
Fe399       O408   1.980       .  S
O400        C407   1.273       .  A
O401        C415   1.268       .  A
O402        C407   1.273       .  A
O403        C406   1.264       .  A
O404        C416   1.271       .  A
O405        C418   1.272       .  A
C406        O411   1.266       .  A
C406       C2174   1.482       .  S
C407        C629   1.494       .  S
O409        C412   1.271       .  A
O410        C412   1.265       .  A
C412        C854   1.495       .  S
O413        C418   1.269       .  A
O414        C416   1.272       .  A
C415        O417   1.269       .  A
C415       C1310   1.483       .  S
C416        C653   1.485       .  S
C418        C989   1.479       .  S
Fe419       O435   2.057       .  S
Fe419       O425   2.054       .  S
Fe419       O432   2.060       .  S
Fe419       O424   2.067       .  S
Fe419       O430   1.961       .  S
Fe420       O423   2.079       .  S
Fe420       O427   2.072       .  S
Fe420       O431   2.084       .  S
Fe420       O436   2.066       .  S
Fe420       O430   1.969       .  S
Fe421       O439   2.053       .  S
Fe421       O426   2.091       .  S
Fe421       O433   2.080       .  S
Fe421       O422   2.072       .  S
Fe421       O430   1.968       .  S
O422        C429   1.269       .  A
O423        C437   1.269       .  A
O424        C429   1.267       .  A
O425        C428   1.270       .  A
O426        C438   1.278       .  A
O427        C440   1.268       .  A
C428        O433   1.274       .  A
C428       C1973   1.486       .  S
C429       C1709   1.486       .  S
O431        C434   1.273       .  A
O432        C434   1.271       .  A
C434        C662   1.490       .  S
O435        C440   1.266       .  A
O436        C438   1.273       .  A
C437        O439   1.265       .  A
C437        C734   1.485       .  S
C438        C605   1.486   1_556  S
C440       C1286   1.465       .  S
Fe441       O457   2.058       .  S
Fe441       O447   2.061       .  S
Fe441       O454   2.062       .  S
Fe441       O446   2.062       .  S
Fe441       O452   1.952       .  S
Fe442       O445   2.085       .  S
Fe442       O449   2.072       .  S
Fe442       O453   2.092       .  S
Fe442       O458   2.060       .  S
Fe442       O452   1.963       .  S
Fe443       O461   2.060       .  S
Fe443       O448   2.091       .  S
Fe443       O455   2.089       .  S
Fe443       O444   2.079       .  S
Fe443       O452   1.963       .  S
O444        C451   1.271       .  A
O445        C459   1.272       .  A
O446        C451   1.268       .  A
O447        C450   1.273       .  A
O448        C460   1.277       .  A
O449        C462   1.268       .  A
C450        O455   1.275       .  A
C450       C1469   1.489       .  S
C451       C1157   1.496       .  S
O453        C456   1.276       .  A
O454        C456   1.272       .  A
C456        C581   1.495       .  S
O457        C462   1.265       .  A
O458        C460   1.271       .  A
C459        O461   1.268       .  A
C459       C2198   1.487       .  S
C460        C638   1.485   1_545  S
C462        C902   1.467       .  S
Fe463       O479   2.040       .  S
Fe463       O469   2.059       .  S
Fe463       O476   2.071       .  S
Fe463       O468   2.053       .  S
Fe463       O474   1.966       .  S
Fe464       O467   2.066       .  S
Fe464       O471   2.070       .  S
Fe464       O475   2.071       .  S
Fe464       O480   2.063       .  S
Fe464       O474   1.978       .  S
Fe465       O483   2.060       .  S
Fe465       O470   2.070       .  S
Fe465       O477   2.073       .  S
Fe465       O466   2.071       .  S
Fe465       O474   1.983       .  S
O466        C473   1.267       .  A
O467        C481   1.268       .  A
O468        C473   1.265       .  A
O469        C472   1.271       .  A
O470        C482   1.273       .  A
O471        C484   1.267       .  A
C472        O477   1.272       .  A
C472        C806   1.474       .  S
C473        C677   1.488       .  S
O475        C478   1.272       .  A
O476        C478   1.273       .  A
C478        C533   1.492       .  S
O479        C484   1.263       .  A
O480        C482   1.271       .  A
C481        O483   1.266       .  A
C481       C1382   1.488       .  S
C482        C566   1.478       .  S
C484       C1733   1.481       .  S
Fe485       O501   2.038       .  S
Fe485       O491   2.073       .  S
Fe485       O498   2.067       .  S
Fe485       O490   2.043       .  S
Fe485       O496   1.954       .  S
Fe486       O489   2.046       .  S
Fe486       O493   2.094       .  S
Fe486       O497   2.061       .  S
Fe486       O502   2.090       .  S
Fe486       O496   1.961       .  S
Fe487       O505   2.091       .  S
Fe487       O492   2.068       .  S
Fe487       O499   2.078       .  S
Fe487       O488   2.099       .  S
Fe487       O496   1.962       .  S
O488        C495   1.277       .  A
O489        C503   1.264       .  A
O490        C495   1.268       .  A
O491        C494   1.269       .  A
O492        C504   1.274       .  A
O493        C506   1.278       .  A
C494        O499   1.269       .  A
C494       C1358   1.482       .  S
C495        C557   1.485       .  S
O497        C500   1.265       .  A
O498        C500   1.266       .  A
C500       C2078   1.487       .  S
O501        C506   1.271       .  A
O502        C504   1.278       .  A
C503        O505   1.272       .  A
C503        C917   1.487       .  S
C504        C590   1.487   1_554  S
C506       C1613   1.479       .  S
Fe507       O523   2.044       .  S
Fe507       O513   2.069       .  S
Fe507       O520   2.074       .  S
Fe507       O512   2.050       .  S
Fe507       O518   1.943       .  S
Fe508       O511   2.057       .  S
Fe508       O515   2.093       .  S
Fe508       O519   2.075       .  S
Fe508       O524   2.096       .  S
Fe508       O518   1.955       .  S
Fe509       O527   2.095       .  S
Fe509       O514   2.055       .  S
Fe509       O521   2.076       .  S
Fe509       O510   2.108       .  S
Fe509       O518   1.952       .  S
O510        C517   1.281       .  A
O511        C525   1.268       .  A
O512        C517   1.271       .  A
O513        C516   1.267       .  A
O514        C526   1.271       .  A
O515        C528   1.278       .  A
C516        O521   1.267       .  A
C516        C710   1.476       .  S
C517        C614   1.494       .  S
O519        C522   1.270       .  A
O520        C522   1.268       .  A
C522       C1142   1.499       .  S
O523        C528   1.270       .  A
O524        C526   1.278       .  A
C525        O527   1.274       .  A
C525       C1757   1.488   1_565  S
C526        C542   1.489   1_565  S
C528       C1070   1.473       .  S
C529        C530   1.403       .  A
C529        C534   1.400       .  A
C529        H539   1.084       .  S
C530        C535   1.485       .  S
C530        C531   1.406       .  A
C531        C532   1.405       .  A
C531        O536   1.372       .  S
C532        C533   1.411       .  A
C532        H537   1.083       .  S
C533        C534   1.413       .  A
C534        O538   1.372       .  S
C535        C540   1.410       .  A
C535        C544   1.402       .  A
O536        H552   0.992       .  S
O538        H549   0.992       .  S
C540        C541   1.403       .  A
C540        O545   1.372       .  S
C541        C542   1.407       .  A
C541        H546   1.083       .  S
C542        C543   1.415       .  A
C543        C544   1.399       .  A
C543        O547   1.372       .  S
C544        H548   1.084       .  S
O545        H550   0.992       .  S
O547        H551   0.992       .  S
C553        C554   1.405       .  A
C553        C558   1.402       .  A
C553        H563   1.083       .  S
C554        C559   1.487       .  S
C554        C555   1.409       .  A
C555        C556   1.397       .  A
C555        O560   1.372       .  S
C556        C557   1.407       .  A
C556        H561   1.083       .  S
C557        C558   1.411       .  A
C558        O562   1.371       .  S
C559        C564   1.410       .  A
C559        C568   1.405       .  A
O560        H576   0.992       .  S
O562        H573   0.991       .  S
C564        C565   1.399       .  A
C564        O569   1.372       .  S
C565        C566   1.403       .  A
C565        H570   1.084       .  S
C566        C567   1.411       .  A
C567        C568   1.400       .  A
C567        O571   1.372       .  S
C568        H572   1.083       .  S
O569        H574   0.991       .  S
O571        H575   0.992       .  S
C577        C578   1.404       .  A
C577        C582   1.401       .  A
C577        H587   1.084       .  S
C578        C583   1.492       .  S
C578        C579   1.409       .  A
C579        C580   1.406       .  A
C579        O584   1.373       .  S
C580        C581   1.410       .  A
C580        H585   1.083       .  S
C581        C582   1.415       .  A
C582        O586   1.371       .  S
C583        C588   1.412       .  A
C583        C592   1.405       .  A
O584        H600   0.992       .  S
O586        H597   0.992       .  S
C588        C589   1.402       .  A
C588        O593   1.371       .  S
C589        C590   1.405       .  A
C589        H594   1.084       .  S
C590        C591   1.412       .  A
C591        C592   1.402       .  A
C591        O595   1.372       .  S
C592        H596   1.084       .  S
O593        H598   0.992       .  S
O595        H599   0.992   1_556  S
C601        C602   1.405       .  A
C601        C606   1.401       .  A
C601        H611   1.083       .  S
C602        C607   1.490       .  S
C602        C603   1.410       .  A
C603        C604   1.404       .  A
C603        O608   1.371       .  S
C604        C605   1.407       .  A
C604        H609   1.084   1_554  S
C605        C606   1.411       .  A
C606        O610   1.372       .  S
C607        C612   1.408       .  A
C607        C616   1.403       .  A
O608        H624   0.992       .  S
O610        H621   0.991       .  S
C612        C613   1.403       .  A
C612        O617   1.372       .  S
C613        C614   1.408       .  A
C613        H618   1.083       .  S
C614        C615   1.417       .  A
C615        C616   1.402       .  A
C615        O619   1.372       .  S
C616        H620   1.084       .  S
O617        H622   0.992       .  S
O619        H623   0.992       .  S
C625        C626   1.402       .  A
C625        C630   1.402       .  A
C625        H635   1.083       .  S
C626        C631   1.488       .  S
C626        C627   1.409       .  A
C627        C628   1.401       .  A
C627        O632   1.372       .  S
C628        C629   1.408       .  A
C628        H633   1.083       .  S
C629        C630   1.416       .  A
C630        O634   1.371       .  S
C631        C636   1.410       .  A
C631        C640   1.404       .  A
O632        H648   0.992       .  S
O634        H645   0.992       .  S
C636        C637   1.401       .  A
C636        O641   1.372       .  S
C637        C638   1.404       .  A
C637        H642   1.084       .  S
C638        C639   1.412       .  A
C639        C640   1.402       .  A
C639        O643   1.372       .  S
C640        H644   1.083       .  S
O641        H646   0.991       .  S
O643        H647   0.992   1_565  S
C649        C650   1.404       .  A
C649        C654   1.402       .  A
C649        H659   1.084       .  S
C650        C655   1.488       .  S
C650        C651   1.409       .  A
C651        C652   1.404       .  A
C651        O656   1.373       .  S
C652        C653   1.406       .  A
C652        H657   1.084       .  S
C653        C654   1.412       .  A
C654        O658   1.372       .  S
C655        C660   1.409       .  A
C655        C664   1.404       .  A
O656        H672   0.992       .  S
O658        H669   0.992       .  S
C660        C661   1.400       .  A
C660        O665   1.372       .  S
C661        C662   1.407       .  A
C661        H666   1.083       .  S
C662        C663   1.415       .  A
C663        C664   1.403       .  A
C663        O667   1.371       .  S
C664        H668   1.084       .  S
O665        H670   0.992       .  S
O667        H671   0.992       .  S
C673        C674   1.406       .  A
C673        C678   1.405       .  A
C673        H683   1.083       .  S
C674        C679   1.487       .  S
C674        C675   1.408       .  A
C675        C676   1.397       .  A
C675        O680   1.372       .  S
C676        C677   1.407       .  A
C676        H681   1.083       .  S
C677        C678   1.412       .  A
C678        O682   1.371       .  S
C679        C684   1.409       .  A
C679        C688   1.405       .  A
O680        H696   0.992       .  S
O682        H693   0.992       .  S
C684        C685   1.400   1_554  A
C684        O689   1.372       .  S
C685        C686   1.407       .  A
C685        H690   1.084       .  S
C686        C687   1.411       .  A
C687        C688   1.401   1_556  A
C687        O691   1.371       .  S
C688        H692   1.083       .  S
O689        H694   0.992       .  S
O691        H695   0.992       .  S
C697        C698   1.404       .  A
C697        C702   1.405       .  A
C697        H707   1.083       .  S
C698        C703   1.484       .  S
C698        C699   1.407       .  A
C699        C700   1.399       .  A
C699        O704   1.372       .  S
C700        C701   1.406       .  A
C700        H705   1.084       .  S
C701        C702   1.413       .  A
C702        O706   1.372       .  S
C703        C708   1.407       .  A
C703        C712   1.407       .  A
O704        H720   0.992       .  S
O706        H717   0.992       .  S
C708        C709   1.397       .  A
C708        O713   1.372       .  S
C709        C710   1.403       .  A
C709        H714   1.084       .  S
C710        C711   1.407       .  A
C711        C712   1.407       .  A
C711        O715   1.372       .  S
C712        H716   1.083       .  S
O713        H718   0.992       .  S
O715        H719   0.991       .  S
C721        C722   1.404       .  A
C721        C726   1.399       .  A
C721        H731   1.083       .  S
C722        C727   1.489       .  S
C722        C723   1.410       .  A
C723        C724   1.402       .  A
C723        O728   1.371       .  S
C724        C725   1.406       .  A
C724        H729   1.084       .  S
C725        C726   1.412       .  A
C726        O730   1.372       .  S
C727        C732   1.409   1_554  A
C727        C736   1.406       .  A
O728        H744   0.992       .  S
O730        H741   0.992       .  S
C732        C733   1.402       .  A
C732        O737   1.373       .  S
C733        C734   1.407       .  A
C733        H738   1.084       .  S
C734        C735   1.410   1_556  A
C735        C736   1.401       .  A
C735        O739   1.372       .  S
C736        H740   1.083       .  S
O737        H742   0.992       .  S
O739        H743   0.992       .  S
C745        C746   1.403       .  A
C745        C750   1.402       .  A
C745        H755   1.084       .  S
C746        C751   1.484       .  S
C746        C747   1.407       .  A
C747        C748   1.400       .  A
C747        O752   1.372       .  S
C748        C749   1.408       .  A
C748        H753   1.083       .  S
C749        C750   1.415       .  A
C750        O754   1.371       .  S
C751        C756   1.409       .  A
C751        C760   1.404       .  A
O752        H768   0.992       .  S
O754        H765   0.992       .  S
C756        C757   1.400       .  A
C756        O761   1.371       .  S
C757        C758   1.405   1_554  A
C757        H762   1.084   1_554  S
C758        C759   1.409   1_556  A
C759        C760   1.400       .  A
C759        O763   1.372       .  S
C760        H764   1.084       .  S
O761        H766   0.992       .  S
O763        H767   0.993       .  S
C769        C770   1.406       .  A
C769        C774   1.405       .  A
C769        H779   1.083       .  S
C770        C775   1.492       .  S
C770        C771   1.408       .  A
C771        C772   1.400       .  A
C771        O776   1.371       .  S
C772        C773   1.408       .  A
C772        H777   1.083       .  S
C773        C774   1.414       .  A
C774        O778   1.372       .  S
C775        C780   1.409       .  A
C775        C784   1.406       .  A
O776        H792   0.992       .  S
O778        H789   0.991       .  S
C780        C781   1.404       .  A
C780        O785   1.372       .  S
C781        C782   1.406       .  A
C781        H786   1.084       .  S
C782        C783   1.411       .  A
C783        C784   1.403       .  A
C783        O787   1.372       .  S
C784        H788   1.084       .  S
O785        H790   0.992       .  S
O787        H791   0.993       .  S
C793        C794   1.404       .  A
C793        C798   1.405       .  A
C793        H803   1.083       .  S
C794        C799   1.473       .  S
C794        C795   1.404       .  A
C795        C796   1.392       .  A
C795        O800   1.372       .  S
C796        C797   1.404       .  A
C796        H801   1.084       .  S
C797        C798   1.410       .  A
C798        O802   1.371       .  S
C799        C804   1.407       .  A
C799        C808   1.400       .  A
O800        H816   0.991       .  S
O802        H813   0.991       .  S
C804        C805   1.401       .  A
C804        O809   1.371       .  S
C805        C806   1.404       .  A
C805        H810   1.084       .  S
C806        C807   1.410       .  A
C807        C808   1.396       .  A
C807        O811   1.372       .  S
C808        H812   1.084       .  S
O809        H814   0.992       .  S
O811        H815   0.992       .  S
C817        C818   1.403       .  A
C817        C822   1.400       .  A
C817        H827   1.084       .  S
C818        C823   1.490       .  S
C818        C819   1.409       .  A
C819        C820   1.406       .  A
C819        O824   1.373       .  S
C820        C821   1.409       .  A
C820        H825   1.083       .  S
C821        C822   1.416       .  A
C822        O826   1.371       .  S
C823        C828   1.411       .  A
C823        C832   1.406       .  A
O824        H840   0.992       .  S
O826        H837   0.992       .  S
C828        C829   1.401       .  A
C828        O833   1.371       .  S
C829        C830   1.404       .  A
C829        H834   1.084       .  S
C830        C831   1.412       .  A
C831        C832   1.402       .  A
C831        O835   1.372       .  S
C832        H836   1.084       .  S
O833        H838   0.992       .  S
O835        H839   0.992   1_655  S
C841        C842   1.407       .  A
C841        C846   1.407       .  A
C841        H851   1.083       .  S
C842        C847   1.492       .  S
C842        C843   1.408       .  A
C843        C844   1.399       .  A
C843        O848   1.373       .  S
C844        C845   1.408   1_556  A
C844        H849   1.083       .  S
C845        C846   1.414   1_554  A
C846        O850   1.371   1_556  S
C847        C852   1.410       .  A
C847        C856   1.402       .  A
O848        H864   0.992       .  S
O850        H861   0.992       .  S
C852        C853   1.402       .  A
C852        O857   1.371       .  S
C853        C854   1.407       .  A
C853        H858   1.083       .  S
C854        C855   1.418       .  A
C855        C856   1.403       .  A
C855        O859   1.372       .  S
C856        H860   1.084       .  S
O857        H862   0.991       .  S
O859        H863   0.992       .  S
C865        C866   1.402       .  A
C865        C870   1.399       .  A
C865        H875   1.083       .  S
C866        C871   1.486       .  S
C866        C867   1.412       .  A
C867        C868   1.401       .  A
C867        O872   1.372       .  S
C868        C869   1.404   1_455  A
C868        H873   1.084       .  S
C869        C870   1.411   1_655  A
C870        O874   1.373   1_455  S
C871        C876   1.410       .  A
C871        C880   1.402       .  A
O872        H888   0.991       .  S
O874        H885   0.992       .  S
C876        C877   1.399       .  A
C876        O881   1.372       .  S
C877        C878   1.406       .  A
C877        H882   1.083       .  S
C878        C879   1.416       .  A
C879        C880   1.401       .  A
C879        O883   1.371       .  S
C880        H884   1.084       .  S
O881        H886   0.992       .  S
O883        H887   0.991       .  S
C889        C890   1.401       .  A
C889        C894   1.399       .  A
C889        H899   1.084       .  S
C890        C895   1.479       .  S
C890        C891   1.406       .  A
C891        C892   1.402       .  A
C891        O896   1.373       .  S
C892        C893   1.407       .  A
C892        H897   1.083       .  S
C893        C894   1.414       .  A
C894        O898   1.372       .  S
C895        C900   1.408       .  A
C895        C904   1.406       .  A
O896        H912   0.992       .  S
O898        H909   0.996       .  S
C900        C901   1.397       .  A
C900        O905   1.373       .  S
C901        C902   1.402       .  A
C901        H906   1.084       .  S
C902        C903   1.405       .  A
C903        C904   1.403       .  A
C903        O907   1.371       .  S
C904        H908   1.083       .  S
O905        H910   0.992       .  S
O907        H911   0.992       .  S
C913        C914   1.409       .  A
C913        C918   1.406       .  A
C913        H923   1.083       .  S
C914        C919   1.493       .  S
C914        C915   1.409       .  A
C915        C916   1.397       .  A
C915        O920   1.372       .  S
C916        C917   1.406   1_556  A
C916        H921   1.084   1_556  S
C917        C918   1.410   1_554  A
C918        O922   1.371   1_556  S
C919        C924   1.408       .  A
C919        C928   1.409       .  A
O920        H936   0.992       .  S
O922        H933   0.992       .  S
C924        C925   1.398       .  A
C924        O929   1.372       .  S
C925        C926   1.410       .  A
C925        H930   1.083       .  S
C926        C927   1.412       .  A
C927        C928   1.406       .  A
C927        O931   1.371       .  S
C928        H932   1.083       .  S
O929        H934   0.992       .  S
O931        H935   0.992       .  S
C937        C938   1.401       .  A
C937        C942   1.396       .  A
C937        H947   1.084       .  S
C938        C943   1.484       .  S
C938        C939   1.409       .  A
C939        C940   1.406       .  A
C939        O944   1.373       .  S
C940        C941   1.407       .  A
C940        H945   1.083   1_556  S
C941        C942   1.413       .  A
C942        O946   1.372       .  S
C943        C948   1.407       .  A
C943        C952   1.405       .  A
O944        H960   0.992       .  S
O946        H957   0.992       .  S
C948        C949   1.399       .  A
C948        O953   1.372       .  S
C949        C950   1.407       .  A
C949        H954   1.083       .  S
C950        C951   1.412       .  A
C951        C952   1.401       .  A
C951        O955   1.371       .  S
C952        H956   1.084       .  S
O953        H958   0.992       .  S
O955        H959   0.992       .  S
C961        C962   1.410       .  A
C961        C966   1.405       .  A
C961        H971   1.083       .  S
C962        C967   1.491       .  S
C962        C963   1.410       .  A
C963        C964   1.395       .  A
C963        O968   1.372       .  S
C964        C965   1.406       .  A
C964        H969   1.084       .  S
C965        C966   1.408       .  A
C966        O970   1.371       .  S
C967        C972   1.409       .  A
C967        C976   1.409       .  A
O968        H984   0.992       .  S
O970        H981   0.991       .  S
C972        C973   1.395       .  A
C972        O977   1.372       .  S
C973        C974   1.405       .  A
C973        H978   1.084       .  S
C974        C975   1.409       .  A
C975        C976   1.402       .  A
C975        O979   1.372       .  S
C976        H980   1.083       .  S
O977        H982   0.992       .  S
O979        H983   0.992       .  S
C985        C986   1.401       .  A
C985        C990   1.395       .  A
C985        H995   1.084       .  S
C986        C991   1.477       .  S
C986        C987   1.408       .  A
C987        C988   1.403       .  A
C987        O992   1.371       .  S
C988        C989   1.406       .  A
C988        H993   1.083       .  S
C989        C990   1.411       .  A
C990        O994   1.372       .  S
C991        C996   1.408       .  A
C991       C1000   1.400       .  A
O992       H1008   0.992       .  S
O994       H1005   0.992       .  S
C996        C997   1.403       .  A
C996       O1001   1.372       .  S
C997        C998   1.404       .  A
C997       H1002   1.084       .  S
C998        C999   1.410       .  A
C999       C1000   1.396       .  A
C999       O1003   1.373       .  S
C1000      H1004   1.084       .  S
O1001      H1006   0.991       .  S
O1003      H1007   0.992       .  S
C1009      C1010   1.400       .  A
C1009      C1014   1.398       .  A
C1009      H1019   1.084       .  S
C1010      C1015   1.471       .  S
C1010      C1011   1.406       .  A
C1011      C1012   1.399       .  A
C1011      O1016   1.372       .  S
C1012      C1013   1.404       .  A
C1012      H1017   1.084       .  S
C1013      C1014   1.409       .  A
C1014      O1018   1.372       .  S
C1015      C1020   1.406       .  A
C1015      C1024   1.400       .  A
O1016      H1032   0.992       .  S
O1018      H1029   0.992       .  S
C1020      C1021   1.403       .  A
C1020      O1025   1.371       .  S
C1021      C1022   1.405       .  A
C1021      H1026   1.084       .  S
C1022      C1023   1.409       .  A
C1023      C1024   1.393       .  A
C1023      O1027   1.372       .  S
C1024      H1028   1.084       .  S
O1025      H1030   0.992       .  S
O1027      H1031   0.992       .  S
C1033      C1034   1.403       .  A
C1033      C1038   1.400       .  A
C1033      H1043   1.083       .  S
C1034      C1039   1.496       .  S
C1034      C1035   1.411       .  A
C1035      C1036   1.406       .  A
C1035      O1040   1.371       .  S
C1036      C1037   1.409       .  A
C1036      H1041   1.083       .  S
C1037      C1038   1.415       .  A
C1038      O1042   1.371       .  S
C1039      C1044   1.411       .  A
C1039      C1048   1.405       .  A
O1040      H1056   0.991       .  S
O1042      H1053   0.992       .  S
C1044      C1045   1.405       .  A
C1044      O1049   1.373       .  S
C1045      C1046   1.406       .  A
C1045      H1050   1.084       .  S
C1046      C1047   1.414       .  A
C1047      C1048   1.404       .  A
C1047      O1051   1.372       .  S
C1048      H1052   1.083       .  S
O1049      H1054   0.992       .  S
O1051      H1055   0.992       .  S
C1057      C1058   1.400       .  A
C1057      C1062   1.395       .  A
C1057      H1067   1.084       .  S
C1058      C1063   1.480       .  S
C1058      C1059   1.406       .  A
C1059      C1060   1.404       .  A
C1059      O1064   1.373       .  S
C1060      C1061   1.409       .  A
C1060      H1065   1.083       .  S
C1061      C1062   1.416       .  A
C1062      O1066   1.372       .  S
C1063      C1068   1.410       .  A
C1063      C1072   1.403       .  A
O1064      H1080   0.992       .  S
O1066      H1077   0.992       .  S
C1068      C1069   1.399       .  A
C1068      O1073   1.371       .  S
C1069      C1070   1.403       .  A
C1069      H1074   1.084       .  S
C1070      C1071   1.410       .  A
C1071      C1072   1.396       .  A
C1071      O1075   1.372       .  S
C1072      H1076   1.084       .  S
O1073      H1078   0.992       .  S
O1075      H1079   0.992       .  S
C1081      C1082   1.405       .  A
C1081      C1086   1.404       .  A
C1081      H1091   1.083       .  S
C1082      C1087   1.485       .  S
C1082      C1083   1.407       .  A
C1083      C1084   1.395       .  A
C1083      O1088   1.372       .  S
C1084      C1085   1.407       .  A
C1084      H1089   1.083       .  S
C1085      C1086   1.414       .  A
C1086      O1090   1.371       .  S
C1087      C1092   1.409       .  A
C1087      C1096   1.403       .  A
O1088      H1104   0.992       .  S
O1090      H1101   0.992       .  S
C1092      C1093   1.402       .  A
C1092      O1097   1.371       .  S
C1093      C1094   1.405       .  A
C1093      H1098   1.083       .  S
C1094      C1095   1.412       .  A
C1095      C1096   1.401       .  A
C1095      O1099   1.372       .  S
C1096      H1100   1.084       .  S
O1097      H1102   0.991       .  S
O1099      H1103   0.992       .  S
C1105      C1106   1.402       .  A
C1105      C1110   1.401       .  A
C1105      H1115   1.084       .  S
C1106      C1111   1.479       .  S
C1106      C1107   1.406       .  A
C1107      C1108   1.402       .  A
C1107      O1112   1.371       .  S
C1108      C1109   1.407       .  A
C1108      H1113   1.084       .  S
C1109      C1110   1.411       .  A
C1110      O1114   1.372       .  S
C1111      C1116   1.407       .  A
C1111      C1120   1.402       .  A
O1112      H1128   0.992       .  S
O1114      H1125   0.992       .  S
C1116      C1117   1.404       .  A
C1116      O1121   1.371       .  S
C1117      C1118   1.405       .  A
C1117      H1122   1.084       .  S
C1118      C1119   1.408       .  A
C1119      C1120   1.398       .  A
C1119      O1123   1.372       .  S
C1120      H1124   1.084       .  S
O1121      H1126   0.992       .  S
O1123      H1127   0.992       .  S
C1129      C1130   1.407       .  A
C1129      C1134   1.407       .  A
C1129      H1139   1.083       .  S
C1130      C1135   1.494       .  S
C1130      C1131   1.408       .  A
C1131      C1132   1.403       .  A
C1131      O1136   1.373       .  S
C1132      C1133   1.411       .  A
C1132      H1137   1.083       .  S
C1133      C1134   1.414       .  A
C1134      O1138   1.371       .  S
C1135      C1140   1.411       .  A
C1135      C1144   1.401       .  A
O1136      H1152   0.992       .  S
O1138      H1149   0.992       .  S
C1140      C1141   1.407       .  A
C1140      O1145   1.371       .  S
C1141      C1142   1.409       .  A
C1141      H1146   1.083       .  S
C1142      C1143   1.418       .  A
C1143      C1144   1.402       .  A
C1143      O1147   1.372       .  S
C1144      H1148   1.084       .  S
O1145      H1150   0.992       .  S
O1147      H1151   0.992       .  S
C1153      C1154   1.408       .  A
C1153      C1158   1.406       .  A
C1153      H1163   1.083       .  S
C1154      C1159   1.493       .  S
C1154      C1155   1.407       .  A
C1155      C1156   1.400       .  A
C1155      O1160   1.372       .  S
C1156      C1157   1.411       .  A
C1156      H1161   1.083       .  S
C1157      C1158   1.413       .  A
C1158      O1162   1.371       .  S
C1159      C1164   1.407       .  A
C1159      C1168   1.408       .  A
O1160      H1176   0.992       .  S
O1162      H1173   0.992       .  S
C1164      C1165   1.399       .  A
C1164      O1169   1.372       .  S
C1165      C1166   1.410       .  A
C1165      H1170   1.083       .  S
C1166      C1167   1.413       .  A
C1167      C1168   1.408       .  A
C1167      O1171   1.371       .  S
C1168      H1172   1.083       .  S
O1169      H1174   0.992       .  S
O1171      H1175   0.992       .  S
C1177      C1178   1.403       .  A
C1177      C1182   1.402       .  A
C1177      H1187   1.083       .  S
C1178      C1183   1.474       .  S
C1178      C1179   1.407       .  A
C1179      C1180   1.392       .  A
C1179      O1184   1.372       .  S
C1180      C1181   1.402       .  A
C1180      H1185   1.084       .  S
C1181      C1182   1.410       .  A
C1182      O1186   1.372       .  S
C1183      C1188   1.405       .  A
C1183      C1192   1.401       .  A
O1184      H1200   0.992       .  S
O1186      H1197   0.992       .  S
C1188      C1189   1.400       .  A
C1188      O1193   1.371       .  S
C1189      C1190   1.407       .  A
C1189      H1194   1.083       .  S
C1190      C1191   1.411       .  A
C1191      C1192   1.394       .  A
C1191      O1195   1.372       .  S
C1192      H1196   1.084       .  S
O1193      H1198   0.991       .  S
O1195      H1199   0.991       .  S
C1201      C1202   1.405       .  A
C1201      C1206   1.404       .  A
C1201      H1211   1.083       .  S
C1202      C1207   1.490       .  S
C1202      C1203   1.410       .  A
C1203      C1204   1.400       .  A
C1203      O1208   1.372       .  S
C1204      C1205   1.405       .  A
C1204      H1209   1.084       .  S
C1205      C1206   1.411       .  A
C1206      O1210   1.372       .  S
C1207      C1212   1.408       .  A
C1207      C1216   1.405       .  A
O1208      H1224   0.992       .  S
O1210      H1221   0.992       .  S
C1212      C1213   1.400       .  A
C1212      O1217   1.372       .  S
C1213      C1214   1.408       .  A
C1213      H1218   1.083       .  S
C1214      C1215   1.414       .  A
C1215      C1216   1.403       .  A
C1215      O1219   1.371       .  S
C1216      H1220   1.084       .  S
O1217      H1222   0.992       .  S
O1219      H1223   0.992       .  S
C1225      C1226   1.402       .  A
C1225      C1230   1.400       .  A
C1225      H1235   1.083       .  S
C1226      C1231   1.488       .  S
C1226      C1227   1.411       .  A
C1227      C1228   1.401       .  A
C1227      O1232   1.372       .  S
C1228      C1229   1.406       .  A
C1228      H1233   1.083       .  S
C1229      C1230   1.416       .  A
C1230      O1234   1.372       .  S
C1231      C1236   1.411       .  A
C1231      C1240   1.403       .  A
O1232      H1248   0.991       .  S
O1234      H1245   0.992       .  S
C1236      C1237   1.405       .  A
C1236      O1241   1.372       .  S
C1237      C1238   1.405       .  A
C1237      H1242   1.083       .  S
C1238      C1239   1.413       .  A
C1239      C1240   1.397       .  A
C1239      O1243   1.372       .  S
C1240      H1244   1.084       .  S
O1241      H1246   0.992       .  S
O1243      H1247   0.992       .  S
C1249      C1250   1.404       .  A
C1249      C1254   1.400       .  A
C1249      H1259   1.083       .  S
C1250      C1255   1.487       .  S
C1250      C1251   1.410       .  A
C1251      C1252   1.402       .  A
C1251      O1256   1.372       .  S
C1252      C1253   1.405       .  A
C1252      H1257   1.084       .  S
C1253      C1254   1.411       .  A
C1254      O1258   1.372       .  S
C1255      C1260   1.409       .  A
C1255      C1264   1.402       .  A
O1256      H1272   0.992       .  S
O1258      H1269   0.993       .  S
C1260      C1261   1.404       .  A
C1260      O1265   1.372       .  S
C1261      C1262   1.408       .  A
C1261      H1266   1.083       .  S
C1262      C1263   1.414       .  A
C1263      C1264   1.399       .  A
C1263      O1267   1.372       .  S
C1264      H1268   1.084       .  S
O1265      H1270   0.992       .  S
O1267      H1271   0.993       .  S
C1273      C1274   1.403       .  A
C1273      C1278   1.400       .  A
C1273      H1283   1.084       .  S
C1274      C1279   1.483       .  S
C1274      C1275   1.408       .  A
C1275      C1276   1.400       .  A
C1275      O1280   1.372       .  S
C1276      C1277   1.406       .  A
C1276      H1281   1.084       .  S
C1277      C1278   1.413       .  A
C1278      O1282   1.372       .  S
C1279      C1284   1.412       .  A
C1279      C1288   1.403       .  A
O1280      H1296   0.992       .  S
O1282      H1293   0.992       .  S
C1284      C1285   1.403       .  A
C1284      O1289   1.371       .  S
C1285      C1286   1.402       .  A
C1285      H1290   1.084       .  S
C1286      C1287   1.405       .  A
C1287      C1288   1.395       .  A
C1287      O1291   1.372       .  S
C1288      H1292   1.084       .  S
O1289      H1294   0.991       .  S
O1291      H1295   0.992       .  S
C1297      C1298   1.401       .  A
C1297      C1302   1.399       .  A
C1297      H1307   1.083       .  S
C1298      C1303   1.487       .  S
C1298      C1299   1.409       .  A
C1299      C1300   1.404       .  A
C1299      O1304   1.371       .  S
C1300      C1301   1.409       .  A
C1300      H1305   1.083       .  S
C1301      C1302   1.417       .  A
C1302      O1306   1.372       .  S
C1303      C1308   1.409       .  A
C1303      C1312   1.405       .  A
O1304      H1320   0.992       .  S
O1306      H1317   0.992       .  S
C1308      C1309   1.403       .  A
C1308      O1313   1.372       .  S
C1309      C1310   1.405       .  A
C1309      H1314   1.084       .  S
C1310      C1311   1.411       .  A
C1311      C1312   1.400       .  A
C1311      O1315   1.372       .  S
C1312      H1316   1.084       .  S
O1313      H1318   0.991       .  S
O1315      H1319   0.992       .  S
C1321      C1322   1.403       .  A
C1321      C1326   1.406       .  A
C1321      H1331   1.084       .  S
C1322      C1327   1.487       .  S
C1322      C1323   1.407       .  A
C1323      C1324   1.401       .  A
C1323      O1328   1.373       .  S
C1324      C1325   1.409       .  A
C1324      H1329   1.083       .  S
C1325      C1326   1.416       .  A
C1326      O1330   1.371       .  S
C1327      C1332   1.407       .  A
C1327      C1336   1.406       .  A
O1328      H1344   0.992       .  S
O1330      H1341   0.992       .  S
C1332      C1333   1.395       .  A
C1332      O1337   1.372       .  S
C1333      C1334   1.407       .  A
C1333      H1338   1.084       .  S
C1334      C1335   1.413       .  A
C1335      C1336   1.409       .  A
C1335      O1339   1.371       .  S
C1336      H1340   1.083       .  S
O1337      H1342   0.992       .  S
O1339      H1343   0.992       .  S
C1345      C1346   1.405       .  A
C1345      C1350   1.405       .  A
C1345      H1355   1.083       .  S
C1346      C1351   1.484       .  S
C1346      C1347   1.407       .  A
C1347      C1348   1.400       .  A
C1347      O1352   1.372       .  S
C1348      C1349   1.406       .  A
C1348      H1353   1.082       .  S
C1349      C1350   1.410       .  A
C1350      O1354   1.371       .  S
C1351      C1356   1.406       .  A
C1351      C1360   1.406       .  A
O1352      H1368   0.992       .  S
O1354      H1365   0.991       .  S
C1356      C1357   1.398       .  A
C1356      O1361   1.372       .  S
C1357      C1358   1.405       .  A
C1357      H1362   1.084       .  S
C1358      C1359   1.410       .  A
C1359      C1360   1.407       .  A
C1359      O1363   1.371       .  S
C1360      H1364   1.083       .  S
O1361      H1366   0.992       .  S
O1363      H1367   0.992       .  S
C1369      C1370   1.404       .  A
C1369      C1374   1.402       .  A
C1369      H1379   1.084       .  S
C1370      C1375   1.485       .  S
C1370      C1371   1.408       .  A
C1371      C1372   1.400       .  A
C1371      O1376   1.372       .  S
C1372      C1373   1.406       .  A
C1372      H1377   1.084       .  S
C1373      C1374   1.413       .  A
C1374      O1378   1.371       .  S
C1375      C1380   1.408       .  A
C1375      C1384   1.403       .  A
O1376      H1392   0.991       .  S
O1378      H1389   0.992       .  S
C1380      C1381   1.401       .  A
C1380      O1385   1.371       .  S
C1381      C1382   1.407       .  A
C1381      H1386   1.083       .  S
C1382      C1383   1.415       .  A
C1383      C1384   1.400       .  A
C1383      O1387   1.372       .  S
C1384      H1388   1.084       .  S
O1385      H1390   0.992       .  S
O1387      H1391   0.992       .  S
C1393      C1394   1.408       .  A
C1393      C1398   1.405       .  A
C1393      H1403   1.083       .  S
C1394      C1399   1.492       .  S
C1394      C1395   1.411       .  A
C1395      C1396   1.395       .  A
C1395      O1400   1.372       .  S
C1396      C1397   1.405       .  A
C1396      H1401   1.084       .  S
C1397      C1398   1.411       .  A
C1398      O1402   1.371       .  S
C1399      C1404   1.409       .  A
C1399      C1408   1.407       .  A
O1400      H1416   0.992       .  S
O1402      H1413   0.991       .  S
C1404      C1405   1.400       .  A
C1404      O1409   1.372       .  S
C1405      C1406   1.407       .  A
C1405      H1410   1.083       .  S
C1406      C1407   1.411       .  A
C1407      C1408   1.402       .  A
C1407      O1411   1.371       .  S
C1408      H1412   1.083       .  S
O1409      H1414   0.992       .  S
O1411      H1415   0.991       .  S
C1417      C1418   1.404       .  A
C1417      C1422   1.404       .  A
C1417      H1427   1.084       .  S
C1418      C1423   1.493       .  S
C1418      C1419   1.409       .  A
C1419      C1420   1.403       .  A
C1419      O1424   1.372       .  S
C1420      C1421   1.410       .  A
C1420      H1425   1.083       .  S
C1421      C1422   1.416       .  A
C1422      O1426   1.371       .  S
C1423      C1428   1.411       .  A
C1423      C1432   1.405       .  A
O1424      H1440   0.991       .  S
O1426      H1437   0.992       .  S
C1428      C1429   1.402       .  A
C1428      O1433   1.372       .  S
C1429      C1430   1.404       .  A
C1429      H1434   1.084       .  S
C1430      C1431   1.414       .  A
C1431      C1432   1.405       .  A
C1431      O1435   1.372       .  S
C1432      H1436   1.083       .  S
O1433      H1438   0.993       .  S
O1435      H1439   0.992       .  S
C1441      C1442   1.404       .  A
C1441      C1446   1.399       .  A
C1441      H1451   1.084       .  S
C1442      C1447   1.490       .  S
C1442      C1443   1.411       .  A
C1443      C1444   1.403       .  A
C1443      O1448   1.372       .  S
C1444      C1445   1.406       .  A
C1444      H1449   1.083       .  S
C1445      C1446   1.413       .  A
C1446      O1450   1.371       .  S
C1447      C1452   1.410       .  A
C1447      C1456   1.407       .  A
O1448      H1464   0.993       .  S
O1450      H1461   0.991       .  S
C1452      C1453   1.401       .  A
C1452      O1457   1.371       .  S
C1453      C1454   1.406       .  A
C1453      H1458   1.084       .  S
C1454      C1455   1.407       .  A
C1455      C1456   1.399       .  A
C1455      O1459   1.372       .  S
C1456      H1460   1.083       .  S
O1457      H1462   0.992       .  S
O1459      H1463   0.992       .  S
C1465      C1466   1.404       .  A
C1465      C1470   1.404       .  A
C1465      H1475   1.084       .  S
C1466      C1471   1.486       .  S
C1466      C1467   1.408       .  A
C1467      C1468   1.400       .  A
C1467      O1472   1.372       .  S
C1468      C1469   1.406       .  A
C1468      H1473   1.084       .  S
C1469      C1470   1.414       .  A
C1470      O1474   1.372       .  S
C1471      C1476   1.412       .  A
C1471      C1480   1.403       .  A
O1472      H1488   0.992       .  S
O1474      H1485   0.992       .  S
C1476      C1477   1.405       .  A
C1476      O1481   1.371       .  S
C1477      C1478   1.402       .  A
C1477      H1482   1.083       .  S
C1478      C1479   1.408       .  A
C1479      C1480   1.398       .  A
C1479      O1483   1.372       .  S
C1480      H1484   1.084       .  S
O1481      H1486   0.992       .  S
O1483      H1487   0.992       .  S
C1489      C1490   1.404       .  A
C1489      C1494   1.402       .  A
C1489      H1499   1.084       .  S
C1490      C1495   1.481       .  S
C1490      C1491   1.407       .  A
C1491      C1492   1.401       .  A
C1491      O1496   1.372       .  S
C1492      C1493   1.406       .  A
C1492      H1497   1.084       .  S
C1493      C1494   1.411       .  A
C1494      O1498   1.371       .  S
C1495      C1500   1.410       .  A
C1495      C1504   1.400       .  A
O1496      H1512   0.992       .  S
O1498      H1509   0.992       .  S
C1500      C1501   1.408       .  A
C1500      O1505   1.372       .  S
C1501      C1502   1.404       .  A
C1501      H1506   1.083       .  S
C1502      C1503   1.411       .  A
C1503      C1504   1.393       .  A
C1503      O1507   1.373       .  S
C1504      H1508   1.084       .  S
O1505      H1510   0.991       .  S
O1507      H1511   0.992       .  S
C1513      C1514   1.407       .  A
C1513      C1518   1.405       .  A
C1513      H1523   1.083       .  S
C1514      C1519   1.493       .  S
C1514      C1515   1.408       .  A
C1515      C1516   1.398       .  A
C1515      O1520   1.372       .  S
C1516      C1517   1.410       .  A
C1516      H1521   1.083       .  S
C1517      C1518   1.413       .  A
C1518      O1522   1.371       .  S
C1519      C1524   1.410       .  A
C1519      C1528   1.408       .  A
O1520      H1536   0.992       .  S
O1522      H1533   0.992       .  S
C1524      C1525   1.399       .  A
C1524      O1529   1.372       .  S
C1525      C1526   1.405       .  A
C1525      H1530   1.084       .  S
C1526      C1527   1.411       .  A
C1527      C1528   1.404       .  A
C1527      O1531   1.372       .  S
C1528      H1532   1.083       .  S
O1529      H1534   0.992       .  S
O1531      H1535   0.991       .  S
C1537      C1538   1.402       .  A
C1537      C1542   1.405       .  A
C1537      H1547   1.083       .  S
C1538      C1543   1.473       .  S
C1538      C1539   1.405       .  A
C1539      C1540   1.394       .  A
C1539      O1544   1.372       .  S
C1540      C1541   1.403       .  A
C1540      H1545   1.084       .  S
C1541      C1542   1.411       .  A
C1542      O1546   1.371       .  S
C1543      C1548   1.406       .  A
C1543      C1552   1.400       .  A
O1544      H1560   0.991       .  S
O1546      H1557   0.991       .  S
C1548      C1549   1.402       .  A
C1548      O1553   1.371       .  S
C1549      C1550   1.405       .  A
C1549      H1554   1.083       .  S
C1550      C1551   1.411       .  A
C1551      C1552   1.397       .  A
C1551      O1555   1.371       .  S
C1552      H1556   1.084       .  S
O1553      H1558   0.992       .  S
O1555      H1559   0.992       .  S
C1561      C1562   1.405       .  A
C1561      C1566   1.401       .  A
C1561      H1571   1.083       .  S
C1562      C1567   1.491       .  S
C1562      C1563   1.411       .  A
C1563      C1564   1.402       .  A
C1563      O1568   1.372       .  S
C1564      C1565   1.406       .  A
C1564      H1569   1.084       .  S
C1565      C1566   1.411       .  A
C1566      O1570   1.372       .  S
C1567      C1572   1.410       .  A
C1567      C1576   1.403       .  A
O1568      H1584   0.992       .  S
O1570      H1581   0.992       .  S
C1572      C1573   1.405       .  A
C1572      O1577   1.373       .  S
C1573      C1574   1.409       .  A
C1573      H1578   1.083       .  S
C1574      C1575   1.415       .  A
C1575      C1576   1.399       .  A
C1575      O1579   1.372       .  S
C1576      H1580   1.083       .  S
O1577      H1582   0.992       .  S
O1579      H1583   0.992       .  S
C1585      C1586   1.400       .  A
C1585      C1590   1.397   1_455  A
C1585      H1595   1.083       .  S
C1586      C1591   1.496       .  S
C1586      C1587   1.413       .  A
C1587      C1588   1.411   1_455  A
C1587      O1592   1.371       .  S
C1588      C1589   1.409       .  A
C1588      H1593   1.083       .  S
C1589      C1590   1.418       .  A
C1590      O1594   1.372       .  S
C1591      C1596   1.413       .  A
C1591      C1600   1.401       .  A
O1592      H1608   0.992   1_455  S
O1594      H1605   0.992   1_655  S
C1596      C1597   1.409       .  A
C1596      O1601   1.373       .  S
C1597      C1598   1.407       .  A
C1597      H1602   1.083       .  S
C1598      C1599   1.420       .  A
C1599      C1600   1.401       .  A
C1599      O1603   1.371       .  S
C1600      H1604   1.083       .  S
O1601      H1606   0.991       .  S
O1603      H1607   0.992       .  S
C1609      C1610   1.406       .  A
C1609      C1614   1.403       .  A
C1609      H1619   1.083       .  S
C1610      C1615   1.481       .  S
C1610      C1611   1.408       .  A
C1611      C1612   1.391       .  A
C1611      O1616   1.372       .  S
C1612      C1613   1.405       .  A
C1612      H1617   1.084       .  S
C1613      C1614   1.410       .  A
C1614      O1618   1.371       .  S
C1615      C1620   1.409       .  A
C1615      C1624   1.405       .  A
O1616      H1632   0.992       .  S
O1618      H1629   0.991       .  S
C1620      C1621   1.399       .  A
C1620      O1625   1.372       .  S
C1621      C1622   1.404       .  A
C1621      H1626   1.084       .  S
C1622      C1623   1.408       .  A
C1623      C1624   1.396       .  A
C1623      O1627   1.372       .  S
C1624      H1628   1.084       .  S
O1625      H1630   0.992       .  S
O1627      H1631   0.991       .  S
C1633      C1634   1.401       .  A
C1633      C1638   1.397       .  A
C1633      H1643   1.084       .  S
C1634      C1639   1.473       .  S
C1634      C1635   1.406       .  A
C1635      C1636   1.402       .  A
C1635      O1640   1.371       .  S
C1636      C1637   1.403       .  A
C1636      H1641   1.084       .  S
C1637      C1638   1.408       .  A
C1638      O1642   1.372       .  S
C1639      C1644   1.405       .  A
C1639      C1648   1.402       .  A
O1640      H1656   0.992       .  S
O1642      H1653   0.992       .  S
C1644      C1645   1.395       .  A
C1644      O1649   1.372       .  S
C1645      C1646   1.403       .  A
C1645      H1650   1.084       .  S
C1646      C1647   1.411       .  A
C1647      C1648   1.404       .  A
C1647      O1651   1.372       .  S
C1648      H1652   1.083       .  S
O1649      H1654   0.992       .  S
O1651      H1655   0.991       .  S
C1657      C1658   1.403       .  A
C1657      C1662   1.402       .  A
C1657      H1667   1.084       .  S
C1658      C1663   1.476       .  S
C1658      C1659   1.405       .  A
C1659      C1660   1.396       .  A
C1659      O1664   1.372       .  S
C1660      C1661   1.405       .  A
C1660      H1665   1.084       .  S
C1661      C1662   1.411       .  A
C1662      O1666   1.372       .  S
C1663      C1668   1.405       .  A
C1663      C1672   1.405       .  A
O1664      H1680   0.992       .  S
O1666      H1677   0.992       .  S
C1668      C1669   1.394       .  A
C1668      O1673   1.372       .  S
C1669      C1670   1.405       .  A
C1669      H1674   1.084       .  S
C1670      C1671   1.408       .  A
C1671      C1672   1.404       .  A
C1671      O1675   1.371       .  S
C1672      H1676   1.083       .  S
O1673      H1678   0.992       .  S
O1675      H1679   0.991       .  S
C1681      C1682   1.407       .  A
C1681      C1686   1.404   1_455  A
C1681      H1691   1.083   1_455  S
C1682      C1687   1.492       .  S
C1682      C1683   1.411       .  A
C1683      C1684   1.399       .  A
C1683      O1688   1.372       .  S
C1684      C1685   1.404   1_455  A
C1684      H1689   1.084       .  S
C1685      C1686   1.409       .  A
C1686      O1690   1.371       .  S
C1687      C1692   1.410       .  A
C1687      C1696   1.407       .  A
O1688      H1704   0.992       .  S
O1690      H1701   0.992       .  S
C1692      C1693   1.399       .  A
C1692      O1697   1.372       .  S
C1693      C1694   1.406       .  A
C1693      H1698   1.083       .  S
C1694      C1695   1.412       .  A
C1695      C1696   1.403       .  A
C1695      O1699   1.372       .  S
C1696      H1700   1.083       .  S
O1697      H1702   0.992       .  S
O1699      H1703   0.991       .  S
C1705      C1706   1.408       .  A
C1705      C1710   1.405       .  A
C1705      H1715   1.083       .  S
C1706      C1711   1.499       .  S
C1706      C1707   1.414       .  A
C1707      C1708   1.404       .  A
C1707      O1712   1.373       .  S
C1708      C1709   1.403       .  A
C1708      H1713   1.084       .  S
C1709      C1710   1.410       .  A
C1710      O1714   1.372       .  S
C1711      C1716   1.411       .  A
C1711      C1720   1.408       .  A
O1712      H1728   0.993       .  S
O1714      H1725   0.992       .  S
C1716      C1717   1.402   1_565  A
C1716      O1721   1.371   1_565  S
C1717      C1718   1.408       .  A
C1717      H1722   1.084       .  S
C1718      C1719   1.412   1_545  A
C1719      C1720   1.404       .  A
C1719      O1723   1.371       .  S
C1720      H1724   1.083       .  S
O1721      H1726   0.991       .  S
O1723      H1727   0.993       .  S
C1729      C1730   1.403       .  A
C1729      C1734   1.403       .  A
C1729      H1739   1.083       .  S
C1730      C1735   1.476       .  S
C1730      C1731   1.406       .  A
C1731      C1732   1.392       .  A
C1731      O1736   1.373       .  S
C1732      C1733   1.407       .  A
C1732      H1737   1.084       .  S
C1733      C1734   1.412       .  A
C1734      O1738   1.371       .  S
C1735      C1740   1.409       .  A
C1735      C1744   1.402       .  A
O1736      H1752   0.993       .  S
O1738      H1749   0.992       .  S
C1740      C1741   1.401       .  A
C1740      O1745   1.372       .  S
C1741      C1742   1.401       .  A
C1741      H1746   1.084       .  S
C1742      C1743   1.405       .  A
C1743      C1744   1.395       .  A
C1743      O1747   1.371       .  S
C1744      H1748   1.084       .  S
O1745      H1750   0.991       .  S
O1747      H1751   0.992       .  S
C1753      C1754   1.406       .  A
C1753      C1758   1.404       .  A
C1753      H1763   1.084       .  S
C1754      C1759   1.491       .  S
C1754      C1755   1.408       .  A
C1755      C1756   1.404   1_545  A
C1755      O1760   1.373       .  S
C1756      C1757   1.408   1_565  A
C1756      H1761   1.084       .  S
C1757      C1758   1.410       .  A
C1758      O1762   1.371       .  S
C1759      C1764   1.411       .  A
C1759      C1768   1.404       .  A
O1760      H1776   0.992       .  S
O1762      H1773   0.992       .  S
C1764      C1765   1.402       .  A
C1764      O1769   1.372       .  S
C1765      C1766   1.406       .  A
C1765      H1770   1.084       .  S
C1766      C1767   1.413       .  A
C1767      C1768   1.403       .  A
C1767      O1771   1.372       .  S
C1768      H1772   1.084       .  S
O1769      H1774   0.992       .  S
O1771      H1775   0.992       .  S
C1777      C1778   1.403       .  A
C1777      C1782   1.403       .  A
C1777      H1787   1.083       .  S
C1778      C1783   1.487       .  S
C1778      C1779   1.410       .  A
C1779      C1780   1.400       .  A
C1779      O1784   1.372       .  S
C1780      C1781   1.407       .  A
C1780      H1785   1.083       .  S
C1781      C1782   1.415       .  A
C1782      O1786   1.371       .  S
C1783      C1788   1.411       .  A
C1783      C1792   1.403       .  A
O1784      H1800   0.992       .  S
O1786      H1797   0.991       .  S
C1788      C1789   1.404       .  A
C1788      O1793   1.372       .  S
C1789      C1790   1.405       .  A
C1789      H1794   1.083       .  S
C1790      C1791   1.412       .  A
C1791      C1792   1.399       .  A
C1791      O1795   1.372       .  S
C1792      H1796   1.084       .  S
O1793      H1798   0.992       .  S
O1795      H1799   0.992       .  S
C1801      C1802   1.405       .  A
C1801      C1806   1.400       .  A
C1801      H1811   1.083       .  S
C1802      C1807   1.483       .  S
C1802      C1803   1.408       .  A
C1803      C1804   1.398       .  A
C1803      O1808   1.372       .  S
C1804      C1805   1.406       .  A
C1804      H1809   1.084       .  S
C1805      C1806   1.412       .  A
C1806      O1810   1.372       .  S
C1807      C1812   1.408       .  A
C1807      C1816   1.406       .  A
O1808      H1824   0.992       .  S
O1810      H1821   0.991       .  S
C1812      C1813   1.396       .  A
C1812      O1817   1.372       .  S
C1813      C1814   1.405       .  A
C1813      H1818   1.084       .  S
C1814      C1815   1.410       .  A
C1815      C1816   1.403       .  A
C1815      O1819   1.371   1_455  S
C1816      H1820   1.083       .  S
O1817      H1822   0.992       .  S
O1819      H1823   0.992       .  S
C1825      C1826   1.404       .  A
C1825      C1830   1.400       .  A
C1825      H1835   1.083       .  S
C1826      C1831   1.491       .  S
C1826      C1827   1.411       .  A
C1827      C1828   1.404       .  A
C1827      O1832   1.371       .  S
C1828      C1829   1.406       .  A
C1828      H1833   1.083       .  S
C1829      C1830   1.412       .  A
C1830      O1834   1.372       .  S
C1831      C1836   1.410       .  A
C1831      C1840   1.403       .  A
O1832      H1848   0.992       .  S
O1834      H1845   0.991       .  S
C1836      C1837   1.405       .  A
C1836      O1841   1.373       .  S
C1837      C1838   1.409       .  A
C1837      H1842   1.083       .  S
C1838      C1839   1.417       .  A
C1839      C1840   1.400       .  A
C1839      O1843   1.371       .  S
C1840      H1844   1.083       .  S
O1841      H1846   0.992       .  S
O1843      H1847   0.992       .  S
C1849      C1850   1.404       .  A
C1849      C1854   1.408       .  A
C1849      H1859   1.083       .  S
C1850      C1855   1.488       .  S
C1850      C1851   1.408       .  A
C1851      C1852   1.399       .  A
C1851      O1856   1.373       .  S
C1852      C1853   1.408       .  A
C1852      H1857   1.083       .  S
C1853      C1854   1.415       .  A
C1854      O1858   1.371       .  S
C1855      C1860   1.409       .  A
C1855      C1864   1.406       .  A
O1856      H1872   0.992       .  S
O1858      H1869   0.991       .  S
C1860      C1861   1.400       .  A
C1860      O1865   1.371       .  S
C1861      C1862   1.402       .  A
C1861      H1866   1.082       .  S
C1862      C1863   1.407       .  A
C1863      C1864   1.405       .  A
C1863      O1867   1.371       .  S
C1864      H1868   1.083       .  S
O1865      H1870   0.992       .  S
O1867      H1871   0.992       .  S
C1873      C1874   1.401       .  A
C1873      C1878   1.400       .  A
C1873      H1883   1.084       .  S
C1874      C1879   1.482       .  S
C1874      C1875   1.408       .  A
C1875      C1876   1.404       .  A
C1875      O1880   1.372       .  S
C1876      C1877   1.406       .  A
C1876      H1881   1.083       .  S
C1877      C1878   1.413       .  A
C1878      O1882   1.372       .  S
C1879      C1884   1.407       .  A
C1879      C1888   1.406       .  A
O1880      H1896   0.992       .  S
O1882      H1893   0.992       .  S
C1884      C1885   1.396       .  A
C1884      O1889   1.372       .  S
C1885      C1886   1.405       .  A
C1885      H1890   1.084       .  S
C1886      C1887   1.409       .  A
C1887      C1888   1.407       .  A
C1887      O1891   1.371       .  S
C1888      H1892   1.083       .  S
O1889      H1894   0.992       .  S
O1891      H1895   0.992       .  S
C1897      C1898   1.407       .  A
C1897      C1902   1.410       .  A
C1897      H1907   1.083       .  S
C1898      C1903   1.489       .  S
C1898      C1899   1.407       .  A
C1899      C1900   1.394       .  A
C1899      O1904   1.372       .  S
C1900      C1901   1.407       .  A
C1900      H1905   1.083       .  S
C1901      C1902   1.414       .  A
C1902      O1906   1.371       .  S
C1903      C1908   1.406       .  A
C1903      C1912   1.406       .  A
O1904      H1920   0.992       .  S
O1906      H1917   0.992       .  S
C1908      C1909   1.401       .  A
C1908      O1913   1.372       .  S
C1909      C1910   1.411       .  A
C1909      H1914   1.083       .  S
C1910      C1911   1.413       .  A
C1911      C1912   1.402       .  A
C1911      O1915   1.371       .  S
C1912      H1916   1.084       .  S
O1913      H1918   0.992       .  S
O1915      H1919   0.991       .  S
C1921      C1922   1.406       .  A
C1921      C1926   1.402       .  A
C1921      H1931   1.083       .  S
C1922      C1927   1.493       .  S
C1922      C1923   1.411       .  A
C1923      C1924   1.402       .  A
C1923      O1928   1.372       .  S
C1924      C1925   1.405       .  A
C1924      H1929   1.084       .  S
C1925      C1926   1.410       .  A
C1926      O1930   1.372       .  S
C1927      C1932   1.411       .  A
C1927      C1936   1.407       .  A
O1928      H1944   0.992       .  S
O1930      H1941   0.992       .  S
C1932      C1933   1.399       .  A
C1932      O1937   1.372       .  S
C1933      C1934   1.405       .  A
C1933      H1938   1.084       .  S
C1934      C1935   1.410       .  A
C1935      C1936   1.406       .  A
C1935      O1939   1.372   1_565  S
C1936      H1940   1.083       .  S
O1937      H1942   0.992       .  S
O1939      H1943   0.991       .  S
C1945      C1946   1.404       .  A
C1945      C1950   1.403       .  A
C1945      H1955   1.084       .  S
C1946      C1951   1.490       .  S
C1946      C1947   1.409       .  A
C1947      C1948   1.403       .  A
C1947      O1952   1.374       .  S
C1948      C1949   1.407   1_655  A
C1948      H1953   1.083   1_655  S
C1949      C1950   1.414   1_455  A
C1950      O1954   1.372   1_655  S
C1951      C1956   1.408       .  A
C1951      C1960   1.407       .  A
O1952      H1968   0.992       .  S
O1954      H1965   0.992   1_455  S
C1956      C1957   1.396       .  A
C1956      O1961   1.372       .  S
C1957      C1958   1.408       .  A
C1957      H1962   1.083       .  S
C1958      C1959   1.414       .  A
C1959      C1960   1.407       .  A
C1959      O1963   1.371       .  S
C1960      H1964   1.083       .  S
O1961      H1966   0.992       .  S
O1963      H1967   0.992       .  S
C1969      C1970   1.398       .  A
C1969      C1974   1.397       .  A
C1969      H1979   1.084       .  S
C1970      C1975   1.471       .  S
C1970      C1971   1.404       .  A
C1971      C1972   1.401       .  A
C1971      O1976   1.372       .  S
C1972      C1973   1.408       .  A
C1972      H1977   1.083       .  S
C1973      C1974   1.415       .  A
C1974      O1978   1.372       .  S
C1975      C1980   1.405       .  A
C1975      C1984   1.404       .  A
O1976      H1992   0.991       .  S
O1978      H1989   0.992       .  S
C1980      C1981   1.392       .  A
C1980      O1985   1.372       .  S
C1981      C1982   1.402       .  A
C1981      H1986   1.084       .  S
C1982      C1983   1.408       .  A
C1983      C1984   1.404       .  A
C1983      O1987   1.371       .  S
C1984      H1988   1.083       .  S
O1985      H1990   0.992       .  S
O1987      H1991   0.992       .  S
C1993      C1994   1.405       .  A
C1993      C1998   1.402       .  A
C1993      H2003   1.083       .  S
C1994      C1999   1.493       .  S
C1994      C1995   1.411       .  A
C1995      C1996   1.402       .  A
C1995      O2000   1.372       .  S
C1996      C1997   1.406       .  A
C1996      H2001   1.084       .  S
C1997      C1998   1.413       .  A
C1998      O2002   1.372       .  S
C1999      C2004   1.411       .  A
C1999      C2008   1.403       .  A
O2000      H2016   0.992       .  S
O2002      H2013   0.992       .  S
C2004      C2005   1.408       .  A
C2004      O2009   1.372       .  S
C2005      C2006   1.408       .  A
C2005      H2010   1.083       .  S
C2006      C2007   1.415       .  A
C2007      C2008   1.398       .  A
C2007      O2011   1.372       .  S
C2008      H2012   1.083       .  S
O2009      H2014   0.992       .  S
O2011      H2015   0.992       .  S
C2017      C2018   1.405       .  A
C2017      C2022   1.403       .  A
C2017      H2027   1.083       .  S
C2018      C2023   1.488       .  S
C2018      C2019   1.410       .  A
C2019      C2020   1.395       .  A
C2019      O2024   1.372       .  S
C2020      C2021   1.407       .  A
C2020      H2025   1.083       .  S
C2021      C2022   1.413       .  A
C2022      O2026   1.371       .  S
C2023      C2028   1.412       .  A
C2023      C2032   1.405       .  A
O2024      H2040   0.992       .  S
O2026      H2037   0.991       .  S
C2028      C2029   1.400       .  A
C2028      O2033   1.372       .  S
C2029      C2030   1.402       .  A
C2029      H2034   1.084       .  S
C2030      C2031   1.410       .  A
C2031      C2032   1.398       .  A
C2031      O2035   1.372       .  S
C2032      H2036   1.083       .  S
O2033      H2038   0.991       .  S
O2035      H2039   0.992       .  S
C2041      C2042   1.403       .  A
C2041      C2046   1.396       .  A
C2041      H2051   1.083       .  S
C2042      C2047   1.488       .  S
C2042      C2043   1.411       .  A
C2043      C2044   1.406       .  A
C2043      O2048   1.371       .  S
C2044      C2045   1.406       .  A
C2044      H2049   1.083   1_655  S
C2045      C2046   1.410       .  A
C2046      O2050   1.372       .  S
C2047      C2052   1.409       .  A
C2047      C2056   1.404       .  A
O2048      H2064   0.992       .  S
O2050      H2061   0.992       .  S
C2052      C2053   1.401       .  A
C2052      O2057   1.373       .  S
C2053      C2054   1.407       .  A
C2053      H2058   1.083       .  S
C2054      C2055   1.415       .  A
C2055      C2056   1.404       .  A
C2055      O2059   1.372       .  S
C2056      H2060   1.083       .  S
O2057      H2062   0.992       .  S
O2059      H2063   0.992       .  S
C2065      C2066   1.406       .  A
C2065      C2070   1.401       .  A
C2065      H2075   1.083       .  S
C2066      C2071   1.492       .  S
C2066      C2067   1.410       .  A
C2067      C2068   1.401   1_545  A
C2067      O2072   1.372   1_545  S
C2068      C2069   1.408       .  A
C2068      H2073   1.083       .  S
C2069      C2070   1.411   1_565  A
C2070      O2074   1.372       .  S
C2071      C2076   1.410       .  A
C2071      C2080   1.405       .  A
O2072      H2088   0.991       .  S
O2074      H2085   0.992       .  S
C2076      C2077   1.404       .  A
C2076      O2081   1.373       .  S
C2077      C2078   1.406       .  A
C2077      H2082   1.084       .  S
C2078      C2079   1.413       .  A
C2079      C2080   1.401       .  A
C2079      O2083   1.371       .  S
C2080      H2084   1.083       .  S
O2081      H2086   0.992       .  S
O2083      H2087   0.992       .  S
C2089      C2090   1.400       .  A
C2089      C2094   1.396       .  A
C2089      H2099   1.084       .  S
C2090      C2095   1.476       .  S
C2090      C2091   1.409       .  A
C2091      C2092   1.404       .  A
C2091      O2096   1.373       .  S
C2092      C2093   1.402       .  A
C2092      H2097   1.084       .  S
C2093      C2094   1.406       .  A
C2094      O2098   1.371       .  S
C2095      C2100   1.405       .  A
C2095      C2104   1.404       .  A
O2096      H2112   0.992       .  S
O2098      H2109   0.992       .  S
C2100      C2101   1.395       .  A
C2100      O2105   1.373       .  S
C2101      C2102   1.406       .  A
C2101      H2106   1.084       .  S
C2102      C2103   1.412       .  A
C2103      C2104   1.404       .  A
C2103      O2107   1.371       .  S
C2104      H2108   1.084       .  S
O2105      H2110   0.991       .  S
O2107      H2111   0.992       .  S
C2113      C2114   1.404       .  A
C2113      C2118   1.400       .  A
C2113      H2123   1.083       .  S
C2114      C2119   1.486       .  S
C2114      C2115   1.410       .  A
C2115      C2116   1.400       .  A
C2115      O2120   1.374       .  S
C2116      C2117   1.404       .  A
C2116      H2121   1.084       .  S
C2117      C2118   1.411       .  A
C2118      O2122   1.371       .  S
C2119      C2124   1.410       .  A
C2119      C2128   1.407       .  A
O2120      H2136   0.993       .  S
O2122      H2133   0.992       .  S
C2124      C2125   1.394       .  A
C2124      O2129   1.372       .  S
C2125      C2126   1.402       .  A
C2125      H2130   1.084       .  S
C2126      C2127   1.408       .  A
C2127      C2128   1.404       .  A
C2127      O2131   1.371   1_655  S
C2128      H2132   1.083       .  S
O2129      H2134   0.992       .  S
O2131      H2135   0.992       .  S
C2137      C2138   1.403       .  A
C2137      C2142   1.399       .  A
C2137      H2147   1.083       .  S
C2138      C2143   1.488       .  S
C2138      C2139   1.410       .  A
C2139      C2140   1.403       .  A
C2139      O2144   1.371       .  S
C2140      C2141   1.407       .  A
C2140      H2145   1.083       .  S
C2141      C2142   1.413       .  A
C2142      O2146   1.372       .  S
C2143      C2148   1.409       .  A
C2143      C2152   1.404       .  A
O2144      H2160   0.993       .  S
O2146      H2157   0.993       .  S
C2148      C2149   1.403       .  A
C2148      O2153   1.373       .  S
C2149      C2150   1.406       .  A
C2149      H2154   1.084       .  S
C2150      C2151   1.412       .  A
C2151      C2152   1.400       .  A
C2151      O2155   1.371       .  S
C2152      H2156   1.084       .  S
O2153      H2158   0.992       .  S
O2155      H2159   0.991       .  S
C2161      C2162   1.401       .  A
C2161      C2166   1.395       .  A
C2161      H2171   1.084       .  S
C2162      C2167   1.473       .  S
C2162      C2163   1.405       .  A
C2163      C2164   1.403       .  A
C2163      O2168   1.371       .  S
C2164      C2165   1.406       .  A
C2164      H2169   1.084       .  S
C2165      C2166   1.408       .  A
C2166      O2170   1.373       .  S
C2167      C2172   1.404       .  A
C2167      C2176   1.402       .  A
O2168      H2184   0.992       .  S
O2170      H2181   0.992       .  S
C2172      C2173   1.394       .  A
C2172      O2177   1.373       .  S
C2173      C2174   1.406       .  A
C2173      H2178   1.084       .  S
C2174      C2175   1.413       .  A
C2175      C2176   1.405       .  A
C2175      O2179   1.371       .  S
C2176      H2180   1.083       .  S
O2177      H2182   0.992       .  S
O2179      H2183   0.991       .  S
C2185      C2186   1.406       .  A
C2185      C2190   1.403       .  A
C2185      H2195   1.083       .  S
C2186      C2191   1.494       .  S
C2186      C2187   1.409       .  A
C2187      C2188   1.401       .  A
C2187      O2192   1.372       .  S
C2188      C2189   1.410       .  A
C2188      H2193   1.083       .  S
C2189      C2190   1.413       .  A
C2190      O2194   1.371       .  S
C2191      C2196   1.410       .  A
C2191      C2200   1.407       .  A
O2192      H2208   0.991       .  S
O2194      H2205   0.992       .  S
C2196      C2197   1.404   1_565  A
C2196      O2201   1.373   1_565  S
C2197      C2198   1.406       .  A
C2197      H2202   1.084       .  S
C2198      C2199   1.411   1_545  A
C2199      C2200   1.402       .  A
C2199      O2203   1.372       .  S
C2200      H2204   1.083       .  S
O2201      H2206   0.992       .  S
O2203      H2207   0.992       .  S
C2209      C2210   1.404       .  A
C2209      C2214   1.397       .  A
C2209      H2219   1.084       .  S
C2210      C2215   1.489       .  S
C2210      C2211   1.413       .  A
C2211      C2212   1.406       .  A
C2211      O2216   1.372       .  S
C2212      C2213   1.403       .  A
C2212      H2217   1.084       .  S
C2213      C2214   1.407       .  A
C2214      O2218   1.372       .  S
C2215      C2220   1.410       .  A
C2215      C2224   1.403       .  A
O2216      H2232   0.992       .  S
O2218      H2229   0.992       .  S
C2220      C2221   1.404       .  A
C2220      O2225   1.371       .  S
C2221      C2222   1.408       .  A
C2221      H2226   1.083       .  S
C2222      C2223   1.414       .  A
C2223      C2224   1.397       .  A
C2223      O2227   1.373       .  S
C2224      H2228   1.084       .  S
O2225      H2230   0.992       .  S
O2227      H2231   0.992       .  S
C2233      C2234   1.407       .  A
C2233      C2238   1.406       .  A
C2233      H2243   1.083       .  S
C2234      C2239   1.495       .  S
C2234      C2235   1.411       .  A
C2235      C2236   1.401       .  A
C2235      O2240   1.373       .  S
C2236      C2237   1.406       .  A
C2236      H2241   1.083       .  S
C2237      C2238   1.414       .  A
C2238      O2242   1.371       .  S
C2239      C2244   1.413       .  A
C2239      C2248   1.407       .  A
O2240      H2256   0.992       .  S
O2242      H2253   0.992       .  S
C2244      C2245   1.403       .  A
C2244      O2249   1.371       .  S
C2245      C2246   1.403       .  A
C2245      H2250   1.084       .  S
C2246      C2247   1.407       .  A
C2247      C2248   1.403       .  A
C2247      O2251   1.371       .  S
C2248      H2252   1.083       .  S
O2249      H2254   0.992       .  S
O2251      H2255   0.992       .  S
