geometry optimzed in LAMMPS
_audit_creation_date              2020-12-01 
_audit_creation_method            'lammps2cif' 
_symmetry_space_group_name_H-M    'P1' 
_symmetry_Int_Tables_number       1 
_symmetry_cell_setting            triclinic 
loop_ 
_symmetry_equiv_pos_as_xyz 
  x,y,z 
_cell_length_a                    40.00661794 
_cell_length_b                    40.09087730757138 
_cell_length_c                    27.674671921588043 
_cell_angle_alpha                 90.02694887097881 
_cell_angle_beta                  90.14031381590587 
_cell_angle_gamma                 90.13186554674571 
loop_ 
_atom_site_label 
_atom_site_type_symbol 
_atom_site_fract_x 
_atom_site_fract_y 
_atom_site_fract_z 
_atom_site_charge 
O1          O  0.53539157  0.84654990  0.04640254    -0.73000
O2          O  0.46130653  0.84941947  0.94917250    -0.74000
O3          O  0.46466376  0.84862606  0.05097337    -0.62600
O4          O  0.53202025  0.84716964  0.94409128    -0.71000
O5          O  0.53042260  0.79201851  0.94296740    -0.70600
O6          O  0.46311410  0.79339830  0.05027488    -0.61800
O7          O  0.45934270  0.79423186  0.94777146    -0.74300
O8          O  0.53406639  0.79141464  0.04582550    -0.73100
Cu9        Cu  0.49845053  0.84979756  0.99763507     1.04600
Cu10       Cu  0.49670072  0.79080475  0.99664050     1.04300
C11         C  0.54641887  0.81866290  0.06202895     0.93200
C12         C  0.44818286  0.82245829  0.93352657     0.92300
C13         C  0.45318045  0.82118890  0.06759613     0.84500
C14         C  0.54195667  0.81944576  0.92643999     0.90700
C15         C  0.67078995  0.84949955  0.70920025     0.03100
C16         C  0.64438728  0.84779198  0.74220726    -0.13100
C17         C  0.64463434  0.82389484  0.77917856     0.00600
C18         C  0.67067730  0.80054332  0.78133827    -0.11600
C19         C  0.69673797  0.80163971  0.74757511     0.03000
C20         C  0.69696711  0.82642973  0.71194853    -0.11000
H21         H  0.62392454  0.86536026  0.73947498     0.08600
H22         H  0.67074447  0.78162553  0.80930942     0.06200
H23         H  0.71718228  0.82745739  0.68597450     0.06000
C24         C  0.34109126  0.82658035  0.79263928     0.03100
C25         C  0.31545305  0.80274152  0.79289881    -0.13100
C26         C  0.29061988  0.80300988  0.75704580     0.00600
C27         C  0.29165687  0.82734302  0.72071081    -0.11600
C28         C  0.31684111  0.85174224  0.72076476     0.03000
C29         C  0.34115943  0.85163024  0.75735624    -0.11000
H30         H  0.31529419  0.78349108  0.82040407     0.08600
H31         H  0.27351276  0.82678021  0.69158988     0.06200
H32         H  0.36051358  0.87058397  0.75783772     0.06000
C33         C  0.67170678  0.85067146  0.28436804     0.03100
C34         C  0.64725756  0.84944720  0.24786601    -0.13100
C35         C  0.64896657  0.82535788  0.21101288     0.00600
C36         C  0.67477726  0.80170519  0.21195803    -0.11600
C37         C  0.69898343  0.80230237  0.24870266     0.03000
C38         C  0.69774933  0.82723361  0.28424261    -0.11000
H39         H  0.62683753  0.86713406  0.24844292     0.08600
H40         H  0.67606517  0.78276253  0.18405694     0.06200
H41         H  0.71668874  0.82802049  0.31229973     0.06000
C42         C  0.32348831  0.84706142  0.28549321     0.03100
C43         C  0.34808584  0.84900097  0.24948849    -0.13100
C44         C  0.34961684  0.82476846  0.21296724     0.00600
C45         C  0.32635418  0.79855496  0.21256191    -0.11600
C46         C  0.30177151  0.79642215  0.24837919     0.03000
C47         C  0.30011927  0.82096353  0.28434147    -0.11000
H48         H  0.36621808  0.86908676  0.25022339     0.08600
H49         H  0.32754117  0.77970107  0.18455130     0.06200
H50         H  0.28119157  0.81924815  0.31219402     0.06000
O51         O  0.70055356  0.03660751  0.45021663    -0.73000
O52         O  0.69883403  0.96384954  0.54955027    -0.74000
O53         O  0.69939507  0.96594066  0.44713448    -0.62600
O54         O  0.70038146  0.03426219  0.55279920    -0.71000
O55         O  0.64504163  0.03534152  0.55264399    -0.70600
O56         O  0.64407190  0.96663652  0.44567314    -0.61800
O57         O  0.64337491  0.96435780  0.54800556    -0.74300
O58         O  0.64520201  0.03772711  0.44987399    -0.73100
Cu59       Cu  0.70167469  0.00015748  0.49992713     1.04600
Cu60       Cu  0.64246097  0.00108628  0.49903347     1.04300
C61         C  0.67313115  0.04877487  0.43434986     0.93200
C62         C  0.67077512  0.95244867  0.56412490     0.92300
C63         C  0.67180549  0.95536663  0.42955713     0.84500
C64         C  0.67301504  0.04547023  0.56986045     0.90700
O65         O  0.34696428  0.02998517  0.44641032    -0.73000
O66         O  0.34506722  0.96192665  0.55335485    -0.74000
O67         O  0.34498934  0.95928200  0.45079456    -0.62600
O68         O  0.34769602  0.03289323  0.54908967    -0.71000
O69         O  0.29239171  0.03424720  0.54937300    -0.70600
O70         O  0.28972123  0.96074392  0.45037878    -0.61800
O71         O  0.28979560  0.96361234  0.55278084    -0.74300
O72         O  0.29168302  0.03129707  0.44688135    -0.73100
Cu73       Cu  0.34812035  0.99596453  0.49992610     1.04600
Cu74       Cu  0.28901655  0.99754374  0.49988172     1.04300
C75         C  0.31944257  0.04128500  0.42947235     0.93200
C76         C  0.31695492  0.95198161  0.57005108     0.92300
C77         C  0.31704505  0.94845133  0.43462595     0.84500
C78         C  0.32042505  0.04513806  0.56513372     0.90700
O79         O  0.46375621  0.14758848  0.05235982    -0.73000
O80         O  0.53505781  0.14537991  0.95108426    -0.74000
O81         O  0.53492376  0.14550728  0.05346156    -0.62600
O82         O  0.46437111  0.14732280  0.95027359    -0.71000
O83         O  0.46650997  0.20247005  0.94970223    -0.70600
O84         O  0.53634499  0.20062958  0.05449550    -0.61800
O85         O  0.53755924  0.20057759  0.95233950    -0.74300
O86         O  0.46509191  0.20277401  0.05216099    -0.73100
Cu87       Cu  0.49945837  0.14456388  0.00188189     1.04600
Cu88       Cu  0.50140202  0.20354715  0.00220623     1.04300
C89         C  0.45276526  0.17549031  0.06796816     0.93200
C90         C  0.54809381  0.17261519  0.93633658     0.92300
C91         C  0.54725344  0.17262875  0.06999932     0.84500
C92         C  0.45438454  0.17520483  0.93326519     0.90700
C93         C  0.35261754  0.17230128  0.78377873     0.03100
C94         C  0.32770432  0.19686178  0.78445158    -0.13100
C95         C  0.30337135  0.19795557  0.74803303     0.00600
C96         C  0.30372867  0.17410369  0.71103374    -0.11600
C97         C  0.32865698  0.14958119  0.70969895     0.03000
C98         C  0.35313526  0.14882331  0.74611081    -0.11000
H99         H  0.32731379  0.21519821  0.81325099     0.08600
H100        H  0.28447248  0.17449979  0.68341035     0.06200
H101        H  0.37234281  0.12983644  0.74537069     0.06000
C102        C  0.67460176  0.14800227  0.71763219     0.03100
C103        C  0.65014909  0.14837977  0.75378188    -0.13100
C104        C  0.64994780  0.17366568  0.78868736     0.00600
C105        C  0.67502446  0.19809813  0.78843856    -0.11600
C106        C  0.70023487  0.19746533  0.75337547     0.03000
C107        C  0.69979355  0.17249448  0.71769896    -0.11000
H108        H  0.63103566  0.12917421  0.75446669     0.08600
H109        H  0.67495820  0.21756504  0.81562883     0.06200
H110        H  0.71892390  0.17217213  0.69004047     0.06000
C111        C  0.65388419  0.17439268  0.21305230     0.03100
C112        C  0.68046653  0.19723652  0.21065525    -0.13100
C113        C  0.70595090  0.19677180  0.24552160     0.00600
C114        C  0.70524626  0.17281444  0.28240862    -0.11600
C115        C  0.67942204  0.14912340  0.28422953     0.03000
C116        C  0.65368096  0.15023021  0.24976806    -0.11000
H117        H  0.68153104  0.21526376  0.18155827     0.08600
H118        H  0.72451518  0.17290962  0.31000047     0.06200
H119        H  0.63344571  0.13224242  0.25154685     0.06000
C120        C  0.34671228  0.16978319  0.20988651     0.03100
C121        C  0.34702276  0.14412217  0.24436067    -0.13100
C122        C  0.32314855  0.14328315  0.28135311     0.00600
C123        C  0.29849053  0.16804087  0.28326534    -0.11600
C124        C  0.29809936  0.19385687  0.24922508     0.03000
C125        C  0.32241172  0.19487266  0.21289550    -0.11000
H126        H  0.36601723  0.12497333  0.24265142     0.08600
H127        H  0.27995876  0.16757051  0.31178021     0.06200
H128        H  0.32227684  0.21504748  0.18682566     0.06000
O129        O  0.03538107  0.69838434  0.55275198    -0.73000
O130        O  0.96763352  0.70024027  0.44502908    -0.74000
O131        O  0.96462997  0.70153010  0.54764969    -0.62600
O132        O  0.03850158  0.69748728  0.45062920    -0.71000
O133        O  0.03655501  0.64222041  0.45164872    -0.70600
O134        O  0.96178887  0.64633332  0.54865806    -0.61800
O135        O  0.96529032  0.64499207  0.44645259    -0.74300
O136        O  0.03266831  0.64316910  0.55336549    -0.73100
Cu137      Cu  0.00158633  0.70133106  0.49892374     1.04600
Cu138      Cu  0.99895407  0.64225708  0.50000542     1.04300
C139        C  0.04508708  0.67031012  0.56955302     0.93200
C140        C  0.95540597  0.67281669  0.42923096     0.92300
C141        C  0.95169896  0.67467878  0.56396086     0.84500
C142        C  0.04945436  0.66936340  0.43606510     0.90700
O143        O  0.96597806  0.30172461  0.55401002    -0.73000
O144        O  0.03663352  0.30317540  0.45178233    -0.74000
O145        O  0.03683863  0.30221554  0.55424981    -0.62600
O146        O  0.96606434  0.30298747  0.45125101    -0.71000
O147        O  0.96649217  0.35817910  0.45136531    -0.70600
O148        O  0.03644990  0.35743128  0.55570817    -0.61800
O149        O  0.03753486  0.35848267  0.45324654    -0.74300
O150        O  0.96525651  0.35701410  0.55402559    -0.73100
Cu151      Cu  0.00137408  0.30063340  0.50283015     1.04600
Cu152      Cu  0.00140640  0.35972240  0.50370600     1.04300
C153        C  0.95414548  0.32918073  0.56985013     0.93200
C154        C  0.04814726  0.33085250  0.43616784     0.92300
C155        C  0.04806391  0.32974849  0.57111853     0.84500
C156        C  0.95521753  0.33067882  0.43456982     0.90700
O157        O  0.15040616  0.45957437  0.95482376    -0.73000
O158        O  0.14947747  0.52873397  0.05947308    -0.74000
O159        O  0.14685138  0.53011638  0.95674202    -0.62600
O160        O  0.15265906  0.45842090  0.05679376    -0.71000
O161        O  0.20808408  0.46174477  0.05558191    -0.70600
O162        O  0.20210714  0.53259296  0.95379044    -0.61800
O163        O  0.20473642  0.53171436  0.05657194    -0.74300
O164        O  0.20573569  0.46217798  0.95298020    -0.73100
Cu165      Cu  0.14791785  0.49415822  0.00699407     1.04600
Cu166      Cu  0.20709584  0.49718765  0.00456264     1.04300
C167        C  0.17829464  0.44989997  0.93736820     0.93200
C168        C  0.17701315  0.54086798  0.07507333     0.92300
C169        C  0.17351906  0.54258970  0.93903569     0.84500
C170        C  0.18119200  0.44918231  0.07248118     0.90700
C171        C  0.17194816  0.64343105  0.78939240     0.03100
C172        C  0.14681003  0.64388089  0.75397074    -0.13100
C173        C  0.14583788  0.66949797  0.71952436     0.00600
C174        C  0.17060807  0.69421560  0.71985579    -0.11600
C175        C  0.19566429  0.69424443  0.75533142     0.03000
C176        C  0.19587642  0.66907926  0.79057311    -0.11000
H177        H  0.12793195  0.62444050  0.75338014     0.08600
H178        H  0.17039938  0.71349335  0.69239551     0.06200
H179        H  0.21419497  0.66974520  0.81944336     0.06000
C180        C  0.17572449  0.34720762  0.79121650     0.03100
C181        C  0.15096679  0.34765517  0.75535498    -0.13100
C182        C  0.15059740  0.32335852  0.71892691     0.00600
C183        C  0.17559164  0.29885625  0.71810846    -0.11600
C184        C  0.20024619  0.29810799  0.75420474     0.03000
C185        C  0.20039658  0.32249840  0.79048008    -0.11000
H186        H  0.13201060  0.36693500  0.75577936     0.08600
H187        H  0.17593824  0.28045771  0.68941672     0.06200
H188        H  0.21972071  0.32230582  0.81800875     0.06000
C189        C  0.18049667  0.35082552  0.22320927     0.03100
C190        C  0.15579546  0.35273778  0.25880309    -0.13100
C191        C  0.15385955  0.32828573  0.29481504     0.00600
C192        C  0.17681782  0.30183977  0.29509369    -0.11600
C193        C  0.20198287  0.30028688  0.25992401     0.03000
C194        C  0.20359367  0.32473059  0.22390367    -0.11000
H195        H  0.13772254  0.37283809  0.25792459     0.08600
H196        H  0.17523702  0.28272119  0.32267236     0.06200
H197        H  0.22257390  0.32322841  0.19609049     0.06000
C198        C  0.18381965  0.63627033  0.23126646     0.03100
C199        C  0.16005572  0.63655258  0.26838385    -0.13100
C200        C  0.15986873  0.66240307  0.30246155     0.00600
C201        C  0.18350341  0.68816019  0.29916147    -0.11600
C202        C  0.20707862  0.68826414  0.26172953     0.03000
C203        C  0.20729858  0.66216901  0.22808291    -0.11000
H204        H  0.14111608  0.61719894  0.26989619     0.08600
H205        H  0.18312983  0.70839880  0.32513580     0.06200
H206        H  0.22493572  0.66268706  0.19841435     0.06000
O207        O  0.85377013  0.53586060  0.94524212    -0.73000
O208        O  0.85387025  0.46638981  0.04933501    -0.74000
O209        O  0.85268280  0.46511811  0.94724376    -0.62600
O210        O  0.85487815  0.53728163  0.04755679    -0.71000
O211        O  0.79957655  0.53801987  0.04916433    -0.70600
O212        O  0.79730517  0.46639227  0.94755766    -0.61800
O213        O  0.79855667  0.46692782  0.05036251    -0.74300
O214        O  0.79855060  0.53731268  0.94630901    -0.73100
Cu215      Cu  0.85566828  0.50115097  0.99733954     1.04600
Cu216      Cu  0.79653889  0.50218231  0.99842389     1.04300
C217        C  0.82635208  0.54786404  0.92931317     0.93200
C218        C  0.82626127  0.45540333  0.06621550     0.92300
C219        C  0.82463465  0.45444960  0.93129980     0.84500
C220        C  0.82767981  0.54931737  0.06408007     0.90700
C221        C  0.82670138  0.34969017  0.78786528     0.03100
C222        C  0.80149085  0.32534456  0.78688237    -0.13100
C223        C  0.80141552  0.30058072  0.75103800     0.00600
C224        C  0.82696076  0.30011073  0.71637765    -0.11600
C225        C  0.85209046  0.32453915  0.71702443     0.03000
C226        C  0.85177497  0.34938111  0.75261396    -0.11000
H227        H  0.78195480  0.32568357  0.81395191     0.08600
H228        H  0.82728505  0.28081536  0.68893880     0.06200
H229        H  0.87098226  0.36850325  0.75279742     0.06000
C230        C  0.82321732  0.65077289  0.78129610     0.03100
C231        C  0.80034230  0.67721443  0.78359571    -0.13100
C232        C  0.80068209  0.70242309  0.74855042     0.00600
C233        C  0.82463580  0.70182163  0.71170454    -0.11600
C234        C  0.84796028  0.67583135  0.70939356     0.03000
C235        C  0.84721666  0.65044946  0.74429302    -0.11000
H236        H  0.78243780  0.67845575  0.81282593     0.08600
H237        H  0.82486866  0.72131563  0.68457392     0.06200
H238        H  0.86543836  0.63051247  0.74276783     0.06000
C239        C  0.82765630  0.65352753  0.20939191     0.03100
C240        C  0.85312883  0.65354721  0.24429394    -0.13100
C241        C  0.85431755  0.67837938  0.27988263     0.00600
C242        C  0.82984383  0.70336883  0.28060348    -0.11600
C243        C  0.80448369  0.70387844  0.24545076     0.03000
C244        C  0.80353709  0.67890315  0.20989434    -0.11000
H245        H  0.87186244  0.63404860  0.24404201     0.08600
H246        H  0.83027109  0.72206717  0.30889499     0.06200
H247        H  0.78413740  0.67935055  0.18250276     0.06000
C248        C  0.83204492  0.34903990  0.20798681     0.03100
C249        C  0.80763206  0.32389872  0.20773547    -0.13100
C250        C  0.80743387  0.29932284  0.24374033     0.00600
C251        C  0.83197841  0.29977934  0.27996852    -0.11600
C252        C  0.85684677  0.32455134  0.28025707     0.03000
C253        C  0.85648244  0.34936983  0.24445694    -0.11000
H254        H  0.78867410  0.32357155  0.17968239     0.08600
H255        H  0.83115756  0.28134176  0.30855607     0.06200
H256        H  0.87517199  0.36899031  0.24499057     0.06000
C257        C  0.79708509  0.57923091  0.86398983    -0.20400
C258        C  0.82652331  0.57404152  0.89092295    -0.06900
C259        C  0.85497766  0.59411306  0.88063941     0.13900
C260        C  0.85278401  0.61897184  0.84506235    -0.20400
C261        C  0.82330883  0.62425248  0.81875666    -0.07000
C262        C  0.79521443  0.60373046  0.82776132     0.13900
C263        C  0.76371660  0.60643785  0.79794614    -0.23800
H264        H  0.77541587  0.56367263  0.87078996     0.15200
H265        H  0.87432683  0.63460210  0.83767795     0.15200
C266        C  0.88776579  0.59017191  0.90700636    -0.23700
H267        H  0.74536222  0.58668740  0.80742935     0.05400
H268        H  0.76981108  0.60376045  0.75901774     0.08700
H269        H  0.75139234  0.63077358  0.80412324     0.08700
H270        H  0.89844867  0.56517238  0.89955551     0.08600
H271        H  0.88395063  0.59348275  0.94637929     0.08600
H272        H  0.90655238  0.60891981  0.89528955     0.05400
C273        C  0.80195290  0.40103368  0.82200379    -0.20400
C274        C  0.82632090  0.37608730  0.82505617    -0.06900
C275        C  0.84985489  0.37674979  0.86307937     0.13900
C276        C  0.84856529  0.40261426  0.89717716    -0.20400
C277        C  0.82415542  0.42770121  0.89436412    -0.07000
C278        C  0.80058885  0.42696281  0.85606501     0.13900
C279        C  0.77478479  0.45396155  0.84967333    -0.23800
H280        H  0.78413739  0.40035175  0.79242979     0.15200
H281        H  0.86654176  0.40305735  0.92655151     0.15200
C282        C  0.87586134  0.34983795  0.86825064    -0.23700
H283        H  0.75998373  0.45041705  0.81603822     0.05400
H284        H  0.78728130  0.47868488  0.84752076     0.08700
H285        H  0.75702707  0.45368978  0.88038643     0.08700
H286        H  0.89253634  0.34977999  0.83627855     0.08600
H287        H  0.86342986  0.32514417  0.87138922     0.08600
H288        H  0.89163972  0.35364248  0.90088341     0.05400
C289        C  0.80171952  0.57852031  0.13376156    -0.20400
C290        C  0.82844201  0.57629996  0.10098629    -0.06900
C291        C  0.85474176  0.60005297  0.10397415     0.13900
C292        C  0.85349671  0.62509063  0.13941375    -0.20400
C293        C  0.82682829  0.62712974  0.17197383    -0.07000
C294        C  0.80073338  0.60341991  0.16944024     0.13900
C295        C  0.77249050  0.60352395  0.20540209    -0.23800
H296        H  0.78170790  0.56028236  0.13203153     0.15200
H297        H  0.87348041  0.64334249  0.14178304     0.15200
C298        C  0.88376936  0.60000050  0.06934801    -0.23700
H299        H  0.75515194  0.58221034  0.19961792     0.05400
H300        H  0.75776305  0.62679859  0.20199157     0.08700
H301        H  0.78271430  0.60164868  0.24264280     0.08700
H302        H  0.87433598  0.60150214  0.03169472     0.08600
H303        H  0.89882794  0.57703384  0.07419767     0.08600
H304        H  0.90072693  0.62158646  0.07539475     0.05400
C305        C  0.80360694  0.39755860  0.17117562    -0.20400
C306        C  0.83103478  0.37583264  0.17124385    -0.06900
C307        C  0.85674473  0.38038029  0.13694713     0.13900
C308        C  0.85444747  0.40673829  0.10382032    -0.20400
C309        C  0.82689518  0.42849602  0.10327054    -0.07000
C310        C  0.80116380  0.42387649  0.13782074     0.13900
C311        C  0.77160322  0.44701471  0.14107191    -0.23800
H312        H  0.78410088  0.39403627  0.19784552     0.15200
H313        H  0.87419065  0.40981469  0.07740755     0.15200
C314        C  0.88646954  0.35745828  0.13317552    -0.23700
H315        H  0.75528616  0.44082063  0.17224394     0.05400
H316        H  0.75609570  0.44498045  0.10791774     0.08700
H317        H  0.78040062  0.47311445  0.14577350     0.08700
H318        H  0.88555684  0.33631611  0.15887259     0.08600
H319        H  0.90975877  0.37183484  0.14003692     0.08600
H320        H  0.88755332  0.34674996  0.09620049     0.05400
C321        C  0.19809052  0.56980686  0.86702223    -0.20400
C322        C  0.17170577  0.56820297  0.90038081    -0.06900
C323        C  0.14475035  0.59095165  0.89584021     0.13900
C324        C  0.14554135  0.61508911  0.85909659    -0.20400
C325        C  0.17226194  0.61694291  0.82658277    -0.07000
C326        C  0.19851259  0.59358906  0.82991275     0.13900
C327        C  0.22646230  0.59296027  0.79356488    -0.23800
H328        H  0.21838242  0.55201377  0.86957299     0.15200
H329        H  0.12531985  0.63292029  0.85591033     0.15200
C330        C  0.11550797  0.59077607  0.93006461    -0.23700
H331        H  0.24383535  0.57184153  0.80000288     0.05400
H332        H  0.24118528  0.61626479  0.79594608     0.08700
H333        H  0.21600210  0.59031728  0.75656047     0.08700
H334        H  0.12457379  0.59373109  0.96771409     0.08600
H335        H  0.10132744  0.56708674  0.92641631     0.08600
H336        H  0.09784887  0.61147153  0.92246073     0.05400
C337        C  0.15394443  0.39878055  0.90138389    -0.20400
C338        C  0.17854965  0.42381883  0.89952461    -0.06900
C339        C  0.20230035  0.42345618  0.86158922     0.13900
C340        C  0.20083226  0.39796488  0.82687830    -0.20400
C341        C  0.17624130  0.37310546  0.82899850    -0.07000
C342        C  0.15260642  0.37333863  0.86667944     0.13900
C343        C  0.12645827  0.34637846  0.87084003    -0.23800
H344        H  0.13589197  0.39887033  0.93053400     0.15200
H345        H  0.21876215  0.39753535  0.79756701     0.15200
C346        C  0.22848037  0.45032532  0.85628574    -0.23700
H347        H  0.11056604  0.34983056  0.90330636     0.05400
H348        H  0.13877176  0.32165242  0.87360341     0.08700
H349        H  0.10992183  0.34666891  0.83860342     0.08700
H350        H  0.24619982  0.44945176  0.88714925     0.08600
H351        H  0.21632566  0.47518497  0.85470660     0.08600
H352        H  0.24331312  0.44713014  0.82272789     0.05400
C353        C  0.15379592  0.61044631  0.16270152    -0.20400
C354        C  0.18194492  0.61077132  0.19290497    -0.06900
C355        C  0.20777994  0.58749631  0.18542261     0.13900
C356        C  0.20526543  0.56501502  0.14676691    -0.20400
C357        C  0.17736036  0.56495129  0.11572449    -0.07000
C358        C  0.15104414  0.58780731  0.12423988     0.13900
C359        C  0.12054232  0.58945332  0.09228002    -0.23800
H360        H  0.13407121  0.62844541  0.16890374     0.15200
H361        H  0.22516007  0.54713747  0.14103037     0.15200
C362        C  0.23753295  0.58575175  0.21884668    -0.23700
H363        H  0.10362875  0.61013068  0.10284580     0.05400
H364        H  0.10604535  0.56590838  0.09501780     0.08700
H365        H  0.12824388  0.59370706  0.05431616     0.08700
H366        H  0.22892367  0.58149384  0.25646342     0.08600
H367        H  0.25201127  0.60934104  0.21727930     0.08600
H368        H  0.25463219  0.56507619  0.20891622     0.05400
C369        C  0.19890188  0.40529480  0.19093584    -0.20400
C370        C  0.18133790  0.37542661  0.18392868    -0.06900
C371        C  0.16449567  0.36945210  0.13996260     0.13900
C372        C  0.16518531  0.39390718  0.10386663    -0.20400
C373        C  0.18277311  0.42382845  0.11069233    -0.07000
C374        C  0.19987490  0.42969313  0.15465422     0.13900
C375        C  0.21790771  0.46211020  0.16415219    -0.23800
H376        H  0.21160562  0.40957759  0.22503503     0.15200
H377        H  0.15200495  0.38968399  0.07012560     0.15200
C378        C  0.14562972  0.33740805  0.13142811    -0.23700
H379        H  0.22867816  0.46296251  0.20116549     0.05400
H380        H  0.20023601  0.48328295  0.16039200     0.08700
H381        H  0.23871870  0.46523194  0.13810865     0.08700
H382        H  0.12567140  0.33460798  0.15894479     0.08600
H383        H  0.16300928  0.31592889  0.13405752     0.08600
H384        H  0.13376423  0.33684330  0.09510931     0.05400
C385        C  0.07586882  0.30141001  0.64003105    -0.20400
C386        C  0.07445335  0.32915376  0.60900203    -0.06900
C387        C  0.09851794  0.35496096  0.61441948     0.13900
C388        C  0.12314957  0.35215141  0.65041527    -0.20400
C389        C  0.12447053  0.32436977  0.68106177    -0.07000
C390        C  0.10037185  0.29882386  0.67619349     0.13900
C391        C  0.09967182  0.26941700  0.71012639    -0.23800
H392        H  0.05736098  0.28177501  0.63644690     0.15200
H393        H  0.14168462  0.37171843  0.65464868     0.15200
C394        C  0.09920317  0.38509500  0.58183696    -0.23700
H395        H  0.07810402  0.25268540  0.70265345     0.05400
H396        H  0.09758903  0.27833541  0.74799472     0.08700
H397        H  0.12278226  0.25446415  0.70619842     0.08700
H398        H  0.07627983  0.40017228  0.58714387     0.08600
H399        H  0.10104776  0.37707360  0.54352319     0.08600
H400        H  0.12092432  0.40154729  0.58972347     0.05400
C401        C  0.87568477  0.34846042  0.64225593    -0.20400
C402        C  0.87817913  0.32495917  0.67946011    -0.06900
C403        C  0.90548755  0.30280398  0.68065761     0.13900
C404        C  0.92985319  0.30470003  0.64431441    -0.20400
C405        C  0.92765160  0.32848012  0.60713388    -0.07000
C406        C  0.89996899  0.35042629  0.60587684     0.13900
C407        C  0.89494689  0.37484210  0.56518728    -0.23800
H408        H  0.85441894  0.36517313  0.64155146     0.15200
H409        H  0.95098774  0.28783474  0.64530289     0.15200
C410        C  0.90919167  0.27767219  0.72074904    -0.23700
H411        H  0.91533553  0.39363030  0.56499594     0.05400
H412        H  0.87094315  0.38850235  0.56858858     0.08700
H413        H  0.89449890  0.36110949  0.53039293     0.08700
H414        H  0.88755108  0.26030304  0.72055807     0.08600
H415        H  0.91031596  0.29074730  0.75610615     0.08600
H416        H  0.93233361  0.26267986  0.71674135     0.05400
C417        C  0.10181142  0.35231688  0.40381033    -0.20400
C418        C  0.07430721  0.33077567  0.39856508    -0.06900
C419        C  0.07255506  0.30931219  0.35797494     0.13900
C420        C  0.09904621  0.30892619  0.32485669    -0.20400
C421        C  0.12687336  0.32974942  0.33095632    -0.07000
C422        C  0.12817660  0.35201994  0.37040763     0.13900
C423        C  0.15762379  0.37498738  0.37762729    -0.23800
H424        H  0.10299332  0.36892678  0.43469579     0.15200
H425        H  0.09800162  0.29247101  0.29378855     0.15200
C426        C  0.04233860  0.28772220  0.34831701    -0.23700
H427        H  0.15493463  0.39036651  0.41077956     0.05400
H428        H  0.15991249  0.39213089  0.34632005     0.08700
H429        H  0.18088329  0.36010255  0.38100317     0.08700
H430        H  0.01949790  0.30342042  0.34720687     0.08600
H431        H  0.03974774  0.26853043  0.37690222     0.08600
H432        H  0.04429061  0.27448633  0.31317132     0.05400
C433        C  0.92822898  0.30188784  0.36521311    -0.20400
C434        C  0.92999004  0.33035580  0.39489003    -0.06900
C435        C  0.90781491  0.35723715  0.38569002     0.13900
C436        C  0.88410339  0.35431904  0.34838945    -0.20400
C437        C  0.88223934  0.32570237  0.31935484    -0.07000
C438        C  0.90500299  0.29938115  0.32729444     0.13900
C439        C  0.90594331  0.26924208  0.29468877    -0.23800
H440        H  0.94558476  0.28156872  0.37113560     0.15200
H441        H  0.86678004  0.37457152  0.34172147     0.15200
C442        C  0.90843012  0.38896894  0.41492881    -0.23700
H443        H  0.92686282  0.25227436  0.30418080     0.05400
H444        H  0.90940131  0.27729916  0.25664199     0.08700
H445        H  0.88245343  0.25472188  0.29778590     0.08700
H446        H  0.93260970  0.40208021  0.40973740     0.08600
H447        H  0.90479344  0.38321329  0.45369485     0.08600
H448        H  0.88830203  0.40642314  0.40382746     0.05400
C449        C  0.07116988  0.69475007  0.64293088    -0.20400
C450        C  0.07085578  0.66930168  0.60802523    -0.06900
C451        C  0.09546387  0.64392530  0.61011349     0.13900
C452        C  0.11931134  0.64451614  0.64733384    -0.20400
C453        C  0.11950896  0.66991060  0.68204898    -0.07000
C454        C  0.09514417  0.69531735  0.68003078     0.13900
C455        C  0.09384489  0.72252453  0.71760278    -0.23800
H456        H  0.05232298  0.71411759  0.64146686     0.15200
H457        H  0.13832221  0.62531222  0.64902459     0.15200
C458        C  0.09775610  0.61690531  0.57232491    -0.23700
H459        H  0.07228656  0.73946279  0.71170398     0.05400
H460        H  0.11693615  0.73784849  0.71627049     0.08700
H461        H  0.09133926  0.71130684  0.75409149     0.08700
H462        H  0.09983571  0.62829176  0.53587499     0.08600
H463        H  0.07537221  0.60057233  0.57390380     0.08600
H464        H  0.11998550  0.60080069  0.57793536     0.05400
C465        C  0.10277310  0.64414565  0.40866896    -0.20400
C466        C  0.07772176  0.66821847  0.40170035    -0.06900
C467        C  0.08038546  0.69078403  0.36251610     0.13900
C468        C  0.10782103  0.68848685  0.33126451    -0.20400
C469        C  0.13263023  0.66437348  0.33818849    -0.07000
C470        C  0.13039302  0.64216491  0.37756234     0.13900
C471        C  0.15747577  0.61698756  0.38733197    -0.23800
H472        H  0.10098103  0.62715532  0.43901456     0.15200
H473        H  0.10977303  0.70532552  0.30074386     0.15200
C474        C  0.05389628  0.71654051  0.35222933    -0.23700
H475        H  0.15228765  0.60223102  0.42044670     0.05400
H476        H  0.18175368  0.63004136  0.39239182     0.08700
H477        H  0.15951384  0.59939737  0.35653281     0.08700
H478        H  0.05302151  0.73510370  0.38193098     0.08600
H479        H  0.02914426  0.70420895  0.34839372     0.08600
H480        H  0.05903307  0.73037869  0.31827517     0.05400
C481        C  0.89925141  0.65216455  0.59917363    -0.20400
C482        C  0.92482504  0.67623620  0.60075164    -0.06900
C483        C  0.92453995  0.70059347  0.63795205     0.13900
C484        C  0.89893924  0.69994627  0.67258131    -0.20400
C485        C  0.87372285  0.67566597  0.67113079    -0.07000
C486        C  0.87357036  0.65175403  0.63368046     0.13900
C487        C  0.84590619  0.62634636  0.62939817    -0.23800
H488        H  0.89918269  0.63374432  0.57048114     0.15200
H489        H  0.89877696  0.71824405  0.70144733     0.15200
C490        C  0.95167227  0.72658487  0.64265888    -0.23700
H491        H  0.84898103  0.61033842  0.59695130     0.05400
H492        H  0.82146046  0.63926626  0.62644334     0.08700
H493        H  0.84572059  0.60989350  0.66159961     0.08700
H494        H  0.95106893  0.74364881  0.61112065     0.08600
H495        H  0.97647406  0.71429170  0.64502844     0.08600
H496        H  0.94845919  0.74208684  0.67559132     0.05400
C497        C  0.93278923  0.69641019  0.35292394    -0.20400
C498        C  0.92950736  0.67339536  0.39090235    -0.06900
C499        C  0.90116899  0.65211875  0.39218038     0.13900
C500        C  0.87707989  0.65433874  0.35535891    -0.20400
C501        C  0.88048736  0.67729516  0.31757385    -0.07000
C502        C  0.90868414  0.69844505  0.31605472     0.13900
C503        C  0.91352052  0.72274423  0.27516785    -0.23800
H504        H  0.95450082  0.71262660  0.35183724     0.15200
H505        H  0.85526035  0.63825175  0.35615961     0.15200
C506        C  0.89541106  0.62794277  0.43308088    -0.23700
H507        H  0.93723071  0.73697916  0.27900592     0.05400
H508        H  0.89258446  0.74083580  0.27443082     0.08700
H509        H  0.91424276  0.70904957  0.24029590     0.08700
H510        H  0.89561242  0.64149900  0.46809450     0.08600
H511        H  0.91512874  0.60853702  0.43319080     0.08600
H512        H  0.87094553  0.61498811  0.42965245     0.05400
C513        C  0.21629772  0.24135793  0.24313461    -0.20400
C514        C  0.22644066  0.27283897  0.25975023    -0.06900
C515        C  0.26006394  0.27822258  0.27332928     0.13900
C516        C  0.28295165  0.25191552  0.26964494    -0.20400
C517        C  0.27289247  0.22051746  0.25266953    -0.07000
C518        C  0.23925861  0.21508276  0.23919482     0.13900
C519        C  0.22789295  0.18192174  0.21940866    -0.23800
H520        H  0.19050504  0.23759487  0.23227212     0.15200
H521        H  0.30882658  0.25579380  0.28000574     0.15200
C522        C  0.27167232  0.31159136  0.29210105    -0.23700
H523        H  0.20098948  0.18222946  0.20941617     0.05400
H524        H  0.23164292  0.16213247  0.24689429     0.08700
H525        H  0.24251749  0.17571310  0.18656374     0.08700
H526        H  0.25698635  0.31846130  0.32459779     0.08600
H527        H  0.26825657  0.33098804  0.26394267     0.08600
H528        H  0.29853805  0.31120032  0.30229744     0.05400
C529        C  0.72379669  0.25540150  0.25652787    -0.20400
C530        C  0.73241867  0.22253099  0.24467093    -0.06900
C531        C  0.76572374  0.21495758  0.23198616     0.13900
C532        C  0.78981614  0.24049621  0.23211531    -0.20400
C533        C  0.78116491  0.27336345  0.24404637    -0.07000
C534        C  0.74782217  0.28094526  0.25647093     0.13900
C535        C  0.73775443  0.31577611  0.27072276    -0.23800
H536        H  0.69816469  0.26099302  0.26620218     0.15200
H537        H  0.81545983  0.23492107  0.22249133     0.15200
C538        C  0.77564651  0.18021001  0.21724677    -0.23700
H539        H  0.71095235  0.31706171  0.28090380     0.05400
H540        H  0.74181575  0.33316249  0.24010835     0.08700
H541        H  0.75288201  0.32411286  0.30219991     0.08700
H542        H  0.76031258  0.17202792  0.18588813     0.08600
H543        H  0.77173227  0.16277052  0.24775747     0.08600
H544        H  0.80238807  0.17892874  0.20673561     0.05400
C545        C  0.72712923  0.24657947  0.71511995    -0.20400
C546        C  0.72644645  0.22358948  0.75330651    -0.06900
C547        C  0.75026052  0.22623252  0.79097109     0.13900
C548        C  0.77436372  0.25169292  0.78926230    -0.20400
C549        C  0.77519052  0.27451771  0.75092369    -0.07000
C550        C  0.75106323  0.27224512  0.71368185     0.13900
C551        C  0.74982641  0.29747125  0.67336990    -0.23800
H552        H  0.70850884  0.24468986  0.68671509     0.15200
H553        H  0.79288313  0.25370242  0.81779389     0.15200
C554        C  0.75089941  0.20177284  0.83230907    -0.23700
H555        H  0.72849365  0.29276730  0.64850098     0.05400
H556        H  0.77312774  0.29642468  0.65182294     0.08700
H557        H  0.74692075  0.32289909  0.68871638     0.08700
H558        H  0.75348433  0.17601531  0.81809199     0.08600
H559        H  0.72754788  0.20363426  0.85362793     0.08600
H560        H  0.77214706  0.20665460  0.85726318     0.05400
C561        C  0.25248892  0.22208933  0.78492226    -0.20400
C562        C  0.27717718  0.22382304  0.74911661    -0.06900
C563        C  0.27670398  0.25018175  0.71529280     0.13900
C564        C  0.25115106  0.27402611  0.71764070    -0.20400
C565        C  0.22641303  0.27223751  0.75331878    -0.07000
C566        C  0.22699337  0.24601746  0.78737298     0.13900
C567        C  0.20036296  0.24289076  0.82552987    -0.23800
H568        H  0.25307355  0.20177901  0.81076236     0.15200
H569        H  0.25059814  0.29437080  0.69186131     0.15200
C570        C  0.30360030  0.25365085  0.67759893    -0.23700
H571        H  0.20405687  0.22036230  0.84825508     0.05400
H572        H  0.17539993  0.24103085  0.80808795     0.08700
H573        H  0.20092006  0.26500925  0.84963004     0.08700
H574        H  0.30328234  0.23172942  0.65313417     0.08600
H575        H  0.32842501  0.25545353  0.69546816     0.08600
H576        H  0.30003224  0.27634798  0.65518970     0.05400
C577        C  0.57525110  0.19791147  0.86508657    -0.20400
C578        C  0.57498056  0.17220220  0.89964015    -0.06900
C579        C  0.60001503  0.14715211  0.89757726     0.13900
C580        C  0.62367851  0.14812133  0.86035282    -0.20400
C581        C  0.62389638  0.17389843  0.82630190    -0.07000
C582        C  0.59938516  0.19906903  0.82846357     0.13900
C583        C  0.59795923  0.22650786  0.79129936    -0.23800
H584        H  0.55610680  0.21698937  0.86626809     0.15200
H585        H  0.64278022  0.12899593  0.85858903     0.15200
C586        C  0.60401501  0.11982460  0.93456088    -0.23700
H587        H  0.57626503  0.24324957  0.79719375     0.05400
H588        H  0.59562351  0.21551035  0.75460841     0.08700
H589        H  0.62095137  0.24196245  0.79315806     0.08700
H590        H  0.58724177  0.12222187  0.96583041     0.08600
H591        H  0.62988266  0.12038890  0.94921260     0.08600
H592        H  0.59961838  0.09522525  0.91719052     0.05400
C593        C  0.39984002  0.20004151  0.82551104    -0.20400
C594        C  0.37872815  0.17222398  0.82175831    -0.06900
C595        C  0.38215185  0.14573870  0.85497154     0.13900
C596        C  0.40699275  0.14760532  0.89078742    -0.20400
C597        C  0.42838018  0.17542563  0.89469789    -0.07000
C598        C  0.42464616  0.20206979  0.86137219     0.13900
C599        C  0.44701081  0.23239242  0.86219525    -0.23800
H600        H  0.39690747  0.22029819  0.79991451     0.15200
H601        H  0.40940881  0.12726884  0.91633868     0.15200
C602        C  0.35896443  0.11603903  0.85389656    -0.23700
H603        H  0.44149169  0.24961365  0.83178491     0.05400
H604        H  0.47355804  0.22467186  0.85905212     0.08700
H605        H  0.44322034  0.24656211  0.89618622     0.08700
H606        H  0.36202554  0.10202839  0.81965992     0.08600
H607        H  0.33266784  0.12452387  0.85714877     0.08600
H608        H  0.36413632  0.09852140  0.88407565     0.05400
C609        C  0.62103435  0.14571949  0.14938710    -0.20400
C610        C  0.62675430  0.17473700  0.17639964    -0.06900
C611        C  0.60580145  0.20265585  0.16936756     0.13900
C612        C  0.58020776  0.20102569  0.13458204    -0.20400
C613        C  0.57442429  0.17201043  0.10708586    -0.07000
C614        C  0.59517455  0.14379159  0.11511092     0.13900
C615        C  0.59098708  0.11160270  0.08757194    -0.23800
H616        H  0.63707658  0.12432326  0.15524649     0.15200
H617        H  0.56429664  0.22256873  0.12933505     0.15200
C618        C  0.60929888  0.23370515  0.19978472    -0.23700
H619        H  0.61022557  0.09291144  0.09767675     0.05400
H620        H  0.59349160  0.11637177  0.04835253     0.08700
H621        H  0.56621446  0.10039276  0.09548085     0.08700
H622        H  0.63353231  0.24616424  0.19264225     0.08600
H623        H  0.60765983  0.22710672  0.23866896     0.08600
H624        H  0.58927764  0.25204640  0.19176939     0.05400
C625        C  0.40343163  0.14796960  0.10460513    -0.20400
C626        C  0.42508964  0.17564978  0.10371528    -0.06900
C627        C  0.41971844  0.20214311  0.13680095     0.13900
C628        C  0.39382410  0.19946818  0.17077309    -0.20400
C629        C  0.37287030  0.17139815  0.17220926    -0.07000
C630        C  0.37718805  0.14568626  0.13792270     0.13900
C631        C  0.35345369  0.11645791  0.13494286    -0.23800
H632        H  0.40677611  0.12804880  0.07858394     0.15200
H633        H  0.39005928  0.21928872  0.19685631     0.15200
C634        C  0.44139207  0.23295739  0.13762100    -0.23700
H635        H  0.35921023  0.10004854  0.10371434     0.05400
H636        H  0.32745536  0.12561930  0.13051317     0.08700
H637        H  0.35514240  0.10097929  0.16799232     0.08700
H638        H  0.43853312  0.24688035  0.10320540     0.08600
H639        H  0.46795090  0.22587939  0.14301136     0.08600
H640        H  0.43433806  0.25017547  0.16734174     0.05400
C641        C  0.34937324  0.09389479  0.60239368    -0.20400
C642        C  0.32165936  0.07218108  0.60198624    -0.06900
C643        C  0.29640369  0.07640708  0.63734684     0.13900
C644        C  0.29962726  0.10186471  0.67181145    -0.20400
C645        C  0.32730092  0.12328191  0.67219674    -0.07000
C646        C  0.35238626  0.11952665  0.63683914     0.13900
C647        C  0.38172477  0.14310847  0.63439376    -0.23800
H648        H  0.36863963  0.09105684  0.57523878     0.15200
H649        H  0.28050568  0.10495955  0.69914330     0.15200
C650        C  0.26659021  0.05354831  0.64057702    -0.23700
H651        H  0.39816931  0.13747789  0.60316927     0.05400
H652        H  0.39705201  0.14112402  0.66769296     0.08700
H653        H  0.37262877  0.16911669  0.63045849     0.08700
H654        H  0.27534331  0.02753196  0.64458082     0.08600
H655        H  0.25080588  0.05598137  0.60777310     0.08600
H656        H  0.25061998  0.05941065  0.67222710     0.05400
C657        C  0.29512878  0.09593016  0.32187873    -0.20400
C658        C  0.32341813  0.11638777  0.31795250    -0.06900
C659        C  0.35040641  0.11193672  0.35030112     0.13900
C660        C  0.34844842  0.08689953  0.38559871    -0.20400
C661        C  0.31995613  0.06655535  0.39015613    -0.07000
C662        C  0.29289373  0.07114911  0.35751646     0.13900
C663        C  0.26176807  0.04989569  0.35900646    -0.23800
H664        H  0.27451308  0.09960063  0.29693679     0.15200
H665        H  0.36907948  0.08377702  0.41062449     0.15200
C666        C  0.38063711  0.13446803  0.34934923    -0.23700
H667        H  0.24437896  0.05582698  0.32887229     0.05400
H668        H  0.24802756  0.05427164  0.39319352     0.08700
H669        H  0.26862227  0.02320639  0.35582892     0.08700
H670        H  0.37270926  0.16087061  0.35298377     0.08600
H671        H  0.39454496  0.13123256  0.31510024     0.08600
H672        H  0.39819886  0.12884194  0.37938508     0.05400
C673        C  0.64832525  0.09510440  0.60992481    -0.20400
C674        C  0.67368429  0.07091680  0.60898334    -0.06900
C675        C  0.69907690  0.07190870  0.64491677     0.13900
C676        C  0.69883163  0.09749547  0.67966494    -0.20400
C677        C  0.67375030  0.12180699  0.67992076    -0.07000
C678        C  0.64808935  0.12054501  0.64482552     0.13900
C679        C  0.62097056  0.14657358  0.64322787    -0.23800
H680        H  0.62888923  0.09450404  0.58258438     0.15200
H681        H  0.71816295  0.09841941  0.70716845     0.15200
C682        C  0.72587090  0.04559139  0.64813378    -0.23700
H683        H  0.60375532  0.14265357  0.61219027     0.05400
H684        H  0.63233300  0.17174151  0.63962785     0.08700
H685        H  0.60584790  0.14558811  0.67673365     0.08700
H686        H  0.74240730  0.04689947  0.61608656     0.08600
H687        H  0.71419424  0.02048164  0.65047040     0.08600
H688        H  0.74190100  0.04901135  0.68060322     0.05400
C689        C  0.70045836  0.07458538  0.36337098    -0.20400
C690        C  0.67406759  0.07513669  0.39676314    -0.06900
C691        C  0.64958493  0.10055532  0.39319387     0.13900
C692        C  0.65219182  0.12445356  0.35627184    -0.20400
C693        C  0.67855706  0.12371784  0.32300960    -0.07000
C694        C  0.70288472  0.09836595  0.32639445     0.13900
C695        C  0.73081824  0.09561624  0.29020584    -0.23800
H696        H  0.71903917  0.05500574  0.36565316     0.15200
H697        H  0.63358896  0.14397839  0.35332913     0.15200
C698        C  0.62119915  0.10337582  0.42870212    -0.23700
H699        H  0.74645051  0.07318785  0.29668435     0.05400
H700        H  0.74735012  0.11773415  0.29280989     0.08700
H701        H  0.72031643  0.09383250  0.25311670     0.08700
H702        H  0.63124360  0.10498223  0.46608085     0.08600
H703        H  0.60436935  0.08146023  0.42539823     0.08600
H704        H  0.60585954  0.12598567  0.42206072     0.05400
C705        C  0.24417666  0.77425283  0.24090032    -0.20400
C706        C  0.27816950  0.76807591  0.24932759    -0.06900
C707        C  0.28886776  0.73544081  0.26073987     0.13900
C708        C  0.26509961  0.70978227  0.26422871    -0.20400
C709        C  0.23102913  0.71610771  0.25679659    -0.07000
C710        C  0.22044268  0.74854413  0.24408455     0.13900
C711        C  0.18433504  0.75588097  0.23269981    -0.23800
H712        H  0.23624180  0.79932830  0.23182568     0.15200
H713        H  0.27301460  0.68472897  0.27347934     0.15200
C714        C  0.32511039  0.72785606  0.27080049    -0.23700
H715        H  0.18074862  0.78220169  0.22134860     0.05400
H716        H  0.16859071  0.75148557  0.26500382     0.08700
H717        H  0.17566213  0.73951377  0.20278279     0.08700
H718        H  0.33430908  0.74373863  0.30092472     0.08600
H719        H  0.34034215  0.73269172  0.23809697     0.08600
H720        H  0.32880349  0.70135350  0.28114343     0.05400
C721        C  0.29315294  0.89194925  0.32842771    -0.20400
C722        C  0.32193398  0.87229614  0.32447430    -0.06900
C723        C  0.34804109  0.87630809  0.35838313     0.13900
C724        C  0.34536725  0.90104379  0.39403042    -0.20400
C725        C  0.31695484  0.92155138  0.39745546    -0.07000
C726        C  0.29014764  0.91639918  0.36452901     0.13900
C727        C  0.25858889  0.93682241  0.36605918    -0.23800
H728        H  0.27299483  0.88826554  0.30270446     0.15200
H729        H  0.36564873  0.90420431  0.41966187     0.15200
C730        C  0.37821188  0.85381508  0.35825154    -0.23700
H731        H  0.24107369  0.93003977  0.33641770     0.05400
H732        H  0.26476485  0.96364971  0.36212743     0.08700
H733        H  0.24534079  0.93249592  0.40069006     0.08700
H734        H  0.39279980  0.85732743  0.32464514     0.08600
H735        H  0.37008502  0.82737830  0.36097786     0.08600
H736        H  0.39515622  0.85915561  0.38916340     0.05400
C737        C  0.75863780  0.78690174  0.23975383    -0.20400
C738        C  0.72573362  0.77684829  0.24962936    -0.06900
C739        C  0.71891243  0.74275023  0.25862782     0.13900
C740        C  0.74511400  0.71958602  0.25679653    -0.20400
C741        C  0.77800014  0.72962576  0.24693878    -0.07000
C742        C  0.78486119  0.76366481  0.23805919     0.13900
C743        C  0.81951874  0.77533290  0.22507437    -0.23800
H744        H  0.76368064  0.81299963  0.23248032     0.15200
H745        H  0.73990654  0.69344976  0.26365530     0.15200
C746        C  0.68454094  0.72996976  0.27122722    -0.23700
H747        H  0.82011008  0.80246603  0.21703094     0.05400
H748        H  0.82837174  0.76177182  0.19254590     0.08700
H749        H  0.83694853  0.77069006  0.25551766     0.08700
H750        H  0.67610245  0.71196247  0.24322461     0.08600
H751        H  0.66561135  0.74998451  0.27409595     0.08600
H752        H  0.68551191  0.71703417  0.30667385     0.05400
C753        C  0.64543765  0.90618430  0.38967924    -0.20400
C754        C  0.67191769  0.92928884  0.39120899    -0.06900
C755        C  0.69802648  0.92645002  0.35682781     0.13900
C756        C  0.69704883  0.90052561  0.32265448    -0.20400
C757        C  0.67086712  0.87722720  0.32173834    -0.07000
C758        C  0.64477411  0.87998218  0.35593397     0.13900
C759        C  0.61650564  0.85515606  0.35917353    -0.23800
H760        H  0.62551266  0.90790720  0.41605896     0.15200
H761        H  0.71686354  0.89843325  0.29616662     0.15200
C762        C  0.72657796  0.95104377  0.35474833    -0.23700
H763        H  0.61598865  0.84415524  0.39598949     0.05400
H764        H  0.61881512  0.83428448  0.33318626     0.08700
H765        H  0.59240435  0.86801793  0.35237156     0.08700
H766        H  0.74219608  0.94900848  0.38778611     0.08600
H767        H  0.71668872  0.97679763  0.35128261     0.08600
H768        H  0.74315898  0.94631894  0.32335679     0.05400
C769        C  0.27725585  0.74300653  0.75171003    -0.20400
C770        C  0.26559235  0.77584829  0.75549973    -0.06900
C771        C  0.23089298  0.78181650  0.75926493     0.13900
C772        C  0.20878285  0.75459714  0.75955457    -0.20400
C773        C  0.22050102  0.72167482  0.75634392    -0.07000
C774        C  0.25520066  0.71582742  0.75194166     0.13900
C775        C  0.26919235  0.68121163  0.74629012    -0.23800
H776        H  0.30390805  0.73866153  0.74853985     0.15200
H777        H  0.18213107  0.75895876  0.76263330     0.16800
C778        C  0.21711768  0.81659169  0.76455503    -0.23700
H779        H  0.29644733  0.68169154  0.73873377     0.05400
H780        H  0.25659103  0.66815881  0.71588375     0.08700
H781        H  0.26566761  0.66705744  0.78018930     0.08700
H782        H  0.22234093  0.83143498  0.73163819     0.08600
H783        H  0.22864454  0.82899333  0.79637471     0.08600
H784        H  0.18959247  0.81635702  0.76977163     0.05400
C785        C  0.29031346  0.89898903  0.67821762    -0.20400
C786        C  0.31753813  0.87731873  0.68232933    -0.06900
C787        C  0.34405609  0.87958676  0.64892392     0.13900
C788        C  0.34321825  0.90441403  0.61320945    -0.20400
C789        C  0.31605975  0.92645145  0.60903195    -0.07000
C790        C  0.28895531  0.92329336  0.64182855     0.13900
C791        C  0.25863920  0.94547939  0.63965277    -0.23800
H792        H  0.26988052  0.89671269  0.70369519     0.15200
H793        H  0.36365716  0.90611961  0.58769104     0.15200
C794        C  0.37251846  0.85499547  0.64945183    -0.23700
H795        H  0.24101226  0.94042734  0.66973666     0.05400
H796        H  0.24481742  0.94124997  0.60538430     0.08700
H797        H  0.26646163  0.97188691  0.64237494     0.08700
H798        H  0.36252338  0.82921281  0.64632890     0.08600
H799        H  0.38707478  0.85734724  0.68340582     0.08600
H800        H  0.38998975  0.85920580  0.61892240     0.05400
C801        C  0.75464565  0.78409390  0.76750732    -0.20400
C802        C  0.72316100  0.77605923  0.74827979    -0.06900
C803        C  0.71735012  0.74397027  0.72901066     0.13900
C804        C  0.74317677  0.72041322  0.72969328    -0.20400
C805        C  0.77461934  0.72836334  0.74893887    -0.07000
C806        C  0.78052125  0.76045178  0.76818000     0.13900
C807        C  0.81391990  0.76948578  0.78976366    -0.23800
H808        H  0.75888489  0.80884763  0.78210769     0.15200
H809        H  0.73894170  0.69570275  0.71493452     0.15200
C810        C  0.68407792  0.73482210  0.70702556    -0.23700
H811        H  0.81421574  0.79547395  0.80369479     0.05400
H812        H  0.83371978  0.76720548  0.76193542     0.08700
H813        H  0.81967635  0.75242814  0.82025843     0.08700
H814        H  0.67831658  0.75199872  0.67667104     0.08600
H815        H  0.66413476  0.73674774  0.73468752     0.08600
H816        H  0.68399886  0.70892180  0.69277124     0.05400
C817        C  0.65019194  0.87259034  0.63177516    -0.20400
C818        C  0.67115617  0.87582642  0.67212645    -0.06900
C819        C  0.69169668  0.90425198  0.67711214     0.13900
C820        C  0.69125728  0.92870696  0.64095506    -0.20400
C821        C  0.67018853  0.92567256  0.60058468    -0.07000
C822        C  0.64938675  0.89725017  0.59581052     0.13900
C823        C  0.62718898  0.89225163  0.55227902    -0.23800
H824        H  0.63449803  0.85062106  0.62843554     0.15200
H825        H  0.70697937  0.95063293  0.64462571     0.15200
C826        C  0.71344180  0.90910333  0.72110109    -0.23700
H827        H  0.61412665  0.86778416  0.55336354     0.05400
H828        H  0.64240999  0.89313113  0.51878967     0.08700
H829        H  0.60780267  0.91197011  0.55093502     0.08700
H830        H  0.73196730  0.88862088  0.72364803     0.08600
H831        H  0.69767966  0.90912458  0.75409057     0.08600
H832        H  0.72731633  0.93311393  0.71975240     0.05400
C833        C  0.58812728  0.84803136  0.88338965    -0.20400
C834        C  0.56759061  0.81965070  0.88753428    -0.06900
C835        C  0.57226169  0.79277960  0.85477818     0.13900
C836        C  0.59741123  0.79506052  0.81954147    -0.20400
C837        C  0.61783953  0.82339085  0.81590594    -0.07000
C838        C  0.61319966  0.85020347  0.84825878     0.13900
C839        C  0.63544197  0.88064149  0.84720607    -0.23800
H840        H  0.58498332  0.86857603  0.90841536     0.15200
H841        H  0.60121105  0.77460882  0.79450795     0.15200
C842        C  0.55066280  0.76191616  0.85570520    -0.23700
H843        H  0.62957000  0.89818553  0.87705708     0.05400
H844        H  0.63208429  0.89438566  0.81279926     0.08700
H845        H  0.66198879  0.87305299  0.85101720     0.08700
H846        H  0.52394969  0.76894545  0.85193968     0.08600
H847        H  0.55459580  0.74813616  0.89000130     0.08600
H848        H  0.55679668  0.74458995  0.82568308     0.05400
C849        C  0.37112480  0.85038298  0.86280006    -0.20400
C850        C  0.36839674  0.82480837  0.82854735    -0.06900
C851        C  0.39163271  0.79827078  0.82918688     0.13900
C852        C  0.41690398  0.79797894  0.86439201    -0.20400
C853        C  0.42014038  0.82386615  0.89832592    -0.07000
C854        C  0.39659204  0.85030581  0.89778271     0.13900
C855        C  0.39727460  0.87800875  0.93467924    -0.23800
H856        H  0.35302989  0.87047899  0.86223145     0.15200
H857        H  0.43481123  0.77771204  0.86442559     0.15200
C858        C  0.39128674  0.77041491  0.79250293    -0.23700
H859        H  0.37549193  0.89493326  0.93075429     0.05400
H860        H  0.42012690  0.89339720  0.93012729     0.08700
H861        H  0.39656755  0.86733576  0.97169594     0.08700
H862        H  0.41580557  0.76949213  0.77384431     0.08600
H863        H  0.37185407  0.77340478  0.76428822     0.08600
H864        H  0.38699604  0.74626703  0.81113510     0.05400
C865        C  0.40503282  0.84879927  0.10709019    -0.20400
C866        C  0.42757879  0.82193490  0.10624860    -0.06900
C867        C  0.42501384  0.79676638  0.14199278     0.13900
C868        C  0.39954045  0.79874531  0.17663255    -0.20400
C869        C  0.37677183  0.82527266  0.17680878    -0.07000
C870        C  0.37961098  0.85073050  0.14184871     0.13900
C871        C  0.35521720  0.87930047  0.13992839    -0.23800
H872        H  0.40686233  0.86805480  0.07979299     0.15200
H873        H  0.39728934  0.77946185  0.20384807     0.15200
C874        C  0.44947973  0.76829112  0.14505914    -0.23700
H875        H  0.36020247  0.89606377  0.10881063     0.05400
H876        H  0.35712915  0.89448668  0.17331903     0.08700
H877        H  0.32936116  0.86950331  0.13621757     0.08700
H878        H  0.47532083  0.77827024  0.14774490     0.08600
H879        H  0.44712581  0.75204522  0.11277563     0.08600
H880        H  0.44493946  0.75243849  0.17730154     0.05400
C881        C  0.60490800  0.79432145  0.16614233    -0.20400
C882        C  0.62324740  0.82391143  0.17223645    -0.06900
C883        C  0.61755645  0.85084349  0.14038403     0.13900
C884        C  0.59270518  0.84796958  0.10472263    -0.20400
C885        C  0.57357135  0.81868356  0.09916013    -0.07000
C886        C  0.58030579  0.79119212  0.13001793     0.13900
C887        C  0.56153624  0.75864935  0.12614137    -0.23800
H888        H  0.60975910  0.77355107  0.19021870     0.15200
H889        H  0.58836832  0.86888082  0.08073436     0.15200
C890        C  0.63843475  0.88219783  0.14242177    -0.23700
H891        H  0.56958643  0.74051383  0.15416262     0.05400
H892        H  0.56623415  0.74703855  0.09038671     0.08700
H893        H  0.53437833  0.76300483  0.13096830     0.08700
H894        H  0.66531887  0.87575952  0.13929760     0.08600
H895        H  0.63412301  0.89569988  0.17676245     0.08600
H896        H  0.63215036  0.89958087  0.11252061     0.05400
loop_ 
_geom_bond_atom_site_label_1 
_geom_bond_atom_site_label_2 
_geom_bond_distance 
_geom_bond_site_symmetry_2 
_ccdc_geom_bond_type 
O1           Cu9   2.003   1_554  S
O1           C11   1.278       .  A
O2           Cu9   1.999       .  S
O2           C12   1.276       .  A
O3           Cu9   2.004   1_554  S
O3           C13   1.277       .  A
O4           Cu9   2.005       .  S
O4           C14   1.278       .  A
O5          Cu10   2.010       .  S
O5           C14   1.277       .  A
O6          Cu10   2.007   1_554  S
O6           C13   1.277       .  A
O7          Cu10   2.018       .  S
O7           C12   1.280       .  A
O8          Cu10   2.019   1_554  S
O8           C11   1.279       .  A
Cu9         Cu10   2.366       .  S
C11         C885   1.493       .  S
C12         C853   1.485       .  S
C13         C866   1.483       .  S
C14         C834   1.489       .  S
C15         C818   1.472       .  S
C15          C16   1.400       .  A
C15          C20   1.401       .  A
C16          C17   1.402       .  A
C16          H21   1.084       .  S
C17         C837   1.479       .  S
C17          C18   1.403       .  A
C18          C19   1.402       .  A
C18          H22   1.084       .  S
C19         C802   1.475       .  S
C19          C20   1.400       .  A
C20          H23   1.084       .  S
C24         C850   1.477       .  S
C24          C25   1.400       .  A
C24          C29   1.401       .  A
C25          C26   1.402       .  A
C25          H30   1.084       .  S
C26         C770   1.478       .  S
C26          C27   1.402       .  A
C27          C28   1.403       .  A
C27          H31   1.083       .  S
C28         C786   1.478       .  S
C28          C29   1.403       .  A
C29          H32   1.084       .  S
C33         C757   1.484       .  S
C33          C34   1.405       .  A
C33          C38   1.405       .  A
C34          C35   1.406       .  A
C34          H39   1.083       .  S
C35         C882   1.486       .  S
C35          C36   1.404       .  A
C36          C37   1.403       .  A
C36          H40   1.084       .  S
C37         C738   1.481       .  S
C37          C38   1.403       .  A
C38          H41   1.084       .  S
C42         C722   1.480       .  S
C42          C43   1.404       .  A
C42          C47   1.402       .  A
C43          C44   1.403       .  A
C43          H48   1.083       .  S
C44         C869   1.479       .  S
C44          C45   1.402       .  A
C45          C46   1.401       .  A
C45          H49   1.084       .  S
C46         C706   1.476       .  S
C46          C47   1.401       .  A
C47          H50   1.084       .  S
O51         Cu59   2.008       .  S
O51          C61   1.279       .  A
O52         Cu59   2.005   1_565  S
O52          C62   1.277       .  A
O53         Cu59   2.005   1_565  S
O53          C63   1.277       .  A
O54         Cu59   2.003       .  S
O54          C64   1.276       .  A
O55         Cu60   2.024       .  S
O55          C64   1.280       .  A
O56         Cu60   2.023   1_565  S
O56          C63   1.280       .  A
O57         Cu60   2.002   1_565  S
O57          C62   1.276       .  A
O58         Cu60   2.006       .  S
O58          C61   1.277       .  A
Cu59        Cu60   2.369       .  S
C61         C690   1.484       .  S
C62         C821   1.474       .  S
C63         C754   1.489       .  S
C64         C674   1.487       .  S
O65         Cu73   2.014   1_545  S
O65          C75   1.280       .  A
O66         Cu73   2.016       .  S
O66          C76   1.280       .  A
O67         Cu73   2.006       .  S
O67          C77   1.278       .  A
O68         Cu73   2.010   1_545  S
O68          C78   1.278       .  A
O69         Cu74   2.014   1_545  S
O69          C78   1.278       .  A
O70         Cu74   2.013       .  S
O70          C77   1.278       .  A
O71         Cu74   1.999       .  S
O71          C76   1.275       .  A
O72         Cu74   1.999   1_545  S
O72          C75   1.275       .  A
Cu73        Cu74   2.366       .  S
C75         C661   1.487       .  S
C76         C789   1.488       .  S
C77         C725   1.490       .  S
C78         C642   1.489       .  S
O79         Cu87   2.004       .  S
O79          C89   1.278       .  A
O80         Cu87   2.004   1_556  S
O80          C90   1.277       .  A
O81         Cu87   2.010       .  S
O81          C91   1.277       .  A
O82         Cu87   2.003   1_556  S
O82          C92   1.278       .  A
O83         Cu88   2.013   1_556  S
O83          C92   1.278       .  A
O84         Cu88   2.013       .  S
O84          C91   1.279       .  A
O85         Cu88   2.005   1_556  S
O85          C90   1.278       .  A
O86         Cu88   2.008       .  S
O86          C89   1.277       .  A
Cu87        Cu88   2.366       .  S
C89         C626   1.487       .  S
C90         C578   1.481       .  S
C91         C613   1.493       .  S
C92         C597   1.489       .  S
C93         C594   1.480       .  S
C93          C94   1.403       .  A
C93          C98   1.404       .  A
C94          C95   1.400       .  A
C94          H99   1.084       .  S
C95         C562   1.476       .  S
C95          C96   1.401       .  A
C96          C97   1.403       .  A
C96         H100   1.084       .  S
C97         C645   1.480       .  S
C97          C98   1.404       .  A
C98         H101   1.083       .  S
C102        C677   1.481       .  S
C102        C103   1.401       .  A
C102        C107   1.405       .  A
C103        C104   1.400       .  A
C103        H108   1.084       .  S
C104        C581   1.475       .  S
C104        C105   1.401       .  A
C105        C106   1.402       .  A
C105        H109   1.084       .  S
C106        C546   1.480       .  S
C106        C107   1.406       .  A
C107        H110   1.084       .  S
C111        C610   1.484       .  S
C111        C112   1.404       .  A
C111        C116   1.404       .  A
C112        C113   1.402       .  A
C112        H117   1.083       .  S
C113        C530   1.478       .  S
C113        C114   1.402       .  A
C114        C115   1.403       .  A
C114        H118   1.084       .  S
C115        C693   1.480       .  S
C115        C116   1.403       .  A
C116        H119   1.084       .  S
C120        C629   1.480       .  S
C120        C121   1.403       .  A
C120        C125   1.403       .  A
C121        C122   1.402       .  A
C121        H126   1.083       .  S
C122        C658   1.480       .  S
C122        C123   1.402       .  A
C123        C124   1.400       .  A
C123        H127   1.084       .  S
C124        C517   1.474       .  S
C124        C125   1.401       .  A
C125        H128   1.084       .  S
O129       Cu137   2.013       .  S
O129        C139   1.279       .  A
O130       Cu137   2.015   1_655  S
O130        C140   1.279       .  A
O131       Cu137   2.004   1_655  S
O131        C141   1.276       .  A
O132       Cu137   2.000       .  S
O132        C142   1.276       .  A
O133       Cu138   2.016   1_455  S
O133        C142   1.279       .  A
O134       Cu138   2.015       .  S
O134        C141   1.279       .  A
O135       Cu138   2.003       .  S
O135        C140   1.277       .  A
O136       Cu138   1.998   1_455  S
O136        C139   1.276       .  A
Cu137      Cu138   2.371   1_455  S
C139        C450   1.481       .  S
C140        C498   1.481       .  S
C141        C482   1.484       .  S
C142        C466   1.480       .  S
O143       Cu151   2.006   1_655  S
O143        C153   1.277       .  A
O144       Cu151   2.001       .  S
O144        C154   1.276       .  A
O145       Cu151   2.008       .  S
O145        C155   1.278       .  A
O146       Cu151   2.008   1_655  S
O146        C156   1.279       .  A
O147       Cu152   2.011   1_655  S
O147        C156   1.277       .  A
O148       Cu152   2.009       .  S
O148        C155   1.277       .  A
O149       Cu152   2.013       .  S
O149        C154   1.278       .  A
O150       Cu152   2.013   1_655  S
O150        C153   1.278       .  A
Cu151      Cu152   2.369       .  S
C153        C405   1.481       .  S
C154        C418   1.478       .  S
C155        C386   1.486       .  S
C156        C434   1.490       .  S
O157       Cu165   2.004   1_556  S
O157        C167   1.278       .  A
O158       Cu165   2.008       .  S
O158        C168   1.277       .  A
O159       Cu165   2.004   1_556  S
O159        C169   1.276       .  A
O160       Cu165   1.997       .  S
O160        C170   1.276       .  A
O161       Cu166   2.004       .  S
O161        C170   1.277       .  A
O162       Cu166   2.008   1_556  S
O162        C169   1.279       .  A
O163       Cu166   1.999       .  S
O163        C168   1.277       .  A
O164       Cu166   2.002   1_556  S
O164        C167   1.276       .  A
Cu165      Cu166   2.371       .  S
C167        C338   1.480       .  S
C168        C357   1.482       .  S
C169        C322   1.485       .  S
C170        C373   1.468       .  S
C171        C325   1.479       .  S
C171        C172   1.403       .  A
C171        C176   1.404       .  A
C172        C173   1.402       .  A
C172        H177   1.084       .  S
C173        C453   1.477       .  S
C173        C174   1.400       .  A
C174        C175   1.401       .  A
C174        H178   1.084       .  S
C175        C773   1.481       .  S
C175        C176   1.404       .  A
C176        H179   1.083       .  S
C180        C341   1.473       .  S
C180        C181   1.401       .  A
C180        C185   1.400       .  A
C181        C182   1.402       .  A
C181        H186   1.084       .  S
C182        C389   1.479       .  S
C182        C183   1.404       .  A
C183        C184   1.403       .  A
C183        H187   1.084       .  S
C184        C565   1.476       .  S
C184        C185   1.401       .  A
C185        H188   1.084       .  S
C189        C370   1.469       .  S
C189        C190   1.399       .  A
C189        C194   1.398       .  A
C190        C191   1.400       .  A
C190        H195   1.084       .  S
C191        C421   1.475       .  S
C191        C192   1.404       .  A
C192        C193   1.404       .  A
C192        H196   1.084       .  S
C193        C514   1.474       .  S
C193        C194   1.400       .  A
C194        H197   1.084       .  S
C198        C354   1.475       .  S
C198        C199   1.401       .  A
C198        C203   1.401       .  A
C199        C200   1.401       .  A
C199        H204   1.084       .  S
C200        C469   1.475       .  S
C200        C201   1.402       .  A
C201        C202   1.403       .  A
C201        H205   1.084       .  S
C202        C709   1.476       .  S
C202        C203   1.400       .  A
C203        H206   1.084       .  S
O207       Cu215   2.006       .  S
O207        C217   1.276       .  A
O208       Cu215   2.005   1_554  S
O208        C218   1.278       .  A
O209       Cu215   2.005       .  S
O209        C219   1.277       .  A
O210       Cu215   2.007   1_554  S
O210        C220   1.277       .  A
O211       Cu216   2.012   1_554  S
O211        C220   1.279       .  A
O212       Cu216   2.010       .  S
O212        C219   1.277       .  A
O213       Cu216   2.018   1_554  S
O213        C218   1.279       .  A
O214       Cu216   2.018       .  S
O214        C217   1.280       .  A
Cu215      Cu216   2.366       .  S
C217        C258   1.494       .  S
C218        C309   1.489       .  S
C219        C277   1.481       .  S
C220        C290   1.488       .  S
C221        C274   1.476       .  S
C221        C222   1.402       .  A
C221        C226   1.401       .  A
C222        C223   1.403       .  A
C222        H227   1.084       .  S
C223        C549   1.479       .  S
C223        C224   1.403       .  A
C224        C225   1.402       .  A
C224        H228   1.084       .  S
C225        C402   1.475       .  S
C225        C226   1.400       .  A
C226        H229   1.084       .  S
C230        C261   1.485       .  S
C230        C231   1.404       .  A
C230        C235   1.406       .  A
C231        C232   1.401       .  A
C231        H236   1.083       .  S
C232        C805   1.474       .  S
C232        C233   1.401       .  A
C233        C234   1.402       .  A
C233        H237   1.084       .  S
C234        C485   1.480       .  S
C234        C235   1.404       .  A
C235        H238   1.084       .  S
C239        C293   1.481       .  S
C239        C240   1.402       .  A
C239        C244   1.404       .  A
C240        C241   1.401       .  A
C240        H245   1.084       .  S
C241        C501   1.477       .  S
C241        C242   1.403       .  A
C242        C243   1.404       .  A
C242        H246   1.084       .  S
C243        C741   1.482       .  S
C243        C244   1.404       .  A
C244        H247   1.084       .  S
C248        C306   1.480       .  S
C248        C249   1.402       .  A
C248        C253   1.403       .  A
C249        C250   1.402       .  A
C249        H254   1.084       .  S
C250        C533   1.477       .  S
C250        C251   1.402       .  A
C251        C252   1.404       .  A
C251        H255   1.083       .  S
C252        C437   1.483       .  S
C252        C253   1.405       .  A
C253        H256   1.084       .  S
C257        C258   1.408       .  A
C257        C262   1.406       .  A
C257        H264   1.084       .  S
C258        C259   1.422       .  A
C259        C260   1.404       .  A
C259        C266   1.508       .  S
C260        C261   1.401       .  A
C260        H265   1.084       .  S
C261        C262   1.414       .  A
C262        C263   1.509       .  S
C263        H267   1.111       .  S
C263        H268   1.110       .  S
C263        H269   1.108       .  S
C266        H270   1.110       .  S
C266        H271   1.109       .  S
C266        H272   1.111       .  S
C273        C274   1.401       .  A
C273        C278   1.404       .  A
C273        H280   1.084       .  S
C274        C275   1.410       .  A
C275        C276   1.403       .  A
C275        C282   1.507       .  S
C276        C277   1.406       .  A
C276        H281   1.084       .  S
C277        C278   1.417       .  A
C278        C279   1.508       .  S
C279        H283   1.111       .  S
C279        H284   1.111       .  S
C279        H285   1.109       .  S
C282        H286   1.109       .  S
C282        H287   1.110       .  S
C282        H288   1.111       .  S
C289        C290   1.407       .  A
C289        C294   1.404       .  A
C289        H296   1.084       .  S
C290        C291   1.420       .  A
C291        C292   1.404       .  A
C291        C298   1.507       .  S
C292        C293   1.401       .  A
C292        H297   1.084       .  S
C293        C294   1.412       .  A
C294        C295   1.508       .  S
C295        H299   1.111       .  S
C295        H300   1.109       .  S
C295        H301   1.111       .  S
C298        H302   1.109       .  S
C298        H303   1.110       .  S
C298        H304   1.111       .  S
C305        C306   1.403       .  A
C305        C310   1.406       .  A
C305        H312   1.084       .  S
C306        C307   1.413       .  A
C307        C308   1.402       .  A
C307        C314   1.508       .  S
C308        C309   1.407       .  A
C308        H313   1.084       .  S
C309        C310   1.419       .  A
C310        C311   1.508       .  S
C311        H315   1.111       .  S
C311        H316   1.109       .  S
C311        H317   1.111       .  S
C314        H318   1.107       .  S
C314        H319   1.110       .  S
C314        H320   1.110       .  S
C321        C322   1.405       .  A
C321        C326   1.402       .  A
C321        H328   1.084       .  S
C322        C323   1.419       .  A
C323        C324   1.404       .  A
C323        C330   1.507       .  S
C324        C325   1.401       .  A
C324        H329   1.084       .  S
C325        C326   1.411       .  A
C326        C327   1.506       .  S
C327        H331   1.111       .  S
C327        H332   1.105       .  S
C327        H333   1.110       .  S
C330        H334   1.109       .  S
C330        H335   1.110       .  S
C330        H336   1.111       .  S
C337        C338   1.405       .  A
C337        C342   1.402       .  A
C337        H344   1.084       .  S
C338        C339   1.418       .  A
C339        C340   1.403       .  A
C339        C346   1.508       .  S
C340        C341   1.400       .  A
C340        H345   1.084       .  S
C341        C342   1.409       .  A
C342        C343   1.507       .  S
C343        H347   1.111       .  S
C343        H348   1.111       .  S
C343        H349   1.109       .  S
C346        H350   1.109       .  S
C346        H351   1.111       .  S
C346        H352   1.111       .  S
C353        C354   1.401       .  A
C353        C358   1.402       .  A
C353        H360   1.084       .  S
C354        C355   1.410       .  A
C355        C356   1.402       .  A
C355        C362   1.507       .  S
C356        C357   1.407       .  A
C356        H361   1.084       .  S
C357        C358   1.417       .  A
C358        C359   1.507       .  S
C359        H363   1.111       .  S
C359        H364   1.109       .  S
C359        H365   1.109       .  S
C362        H366   1.110       .  S
C362        H367   1.109       .  S
C362        H368   1.111       .  S
C369        C370   1.400       .  A
C369        C374   1.403       .  A
C369        H376   1.084       .  S
C370        C371   1.410       .  A
C371        C372   1.400       .  A
C371        C378   1.507       .  S
C372        C373   1.402       .  A
C372        H377   1.084       .  S
C373        C374   1.414       .  A
C374        C375   1.508       .  S
C375        H379   1.111       .  S
C375        H380   1.111       .  S
C375        H381   1.109       .  S
C378        H382   1.110       .  S
C378        H383   1.110       .  S
C378        H384   1.111       .  S
C385        C386   1.407       .  A
C385        C390   1.403       .  A
C385        H392   1.084       .  S
C386        C387   1.419       .  A
C387        C388   1.404       .  A
C387        C394   1.508       .  S
C388        C389   1.401       .  A
C388        H393   1.084       .  S
C389        C390   1.411       .  A
C390        C391   1.508       .  S
C391        H395   1.111       .  S
C391        H396   1.111       .  S
C391        H397   1.109       .  S
C394        H398   1.110       .  S
C394        H399   1.111       .  S
C394        H400   1.111       .  S
C401        C402   1.400       .  A
C401        C406   1.403       .  A
C401        H408   1.084       .  S
C402        C403   1.410       .  A
C403        C404   1.404       .  A
C403        C410   1.506       .  S
C404        C405   1.406       .  A
C404        H409   1.084       .  S
C405        C406   1.416       .  A
C406        C407   1.506       .  S
C407        H411   1.109       .  S
C407        H412   1.111       .  S
C407        H413   1.109       .  S
C410        H414   1.110       .  S
C410        H415   1.111       .  S
C410        H416   1.111       .  S
C417        C418   1.404       .  A
C417        C422   1.404       .  A
C417        H424   1.084       .  S
C418        C419   1.416       .  A
C419        C420   1.403       .  A
C419        C426   1.508       .  S
C420        C421   1.400       .  A
C420        H425   1.084       .  S
C421        C422   1.411       .  A
C422        C423   1.506       .  S
C423        H427   1.111       .  S
C423        H428   1.110       .  S
C423        H429   1.110       .  S
C426        H430   1.111       .  S
C426        H431   1.109       .  S
C426        H432   1.111       .  S
C433        C434   1.407       .  A
C433        C438   1.403       .  A
C433        H440   1.084       .  S
C434        C435   1.420       .  A
C435        C436   1.405       .  A
C435        C442   1.507       .  S
C436        C437   1.402       .  A
C436        H441   1.084       .  S
C437        C438   1.412       .  A
C438        C439   1.508       .  S
C439        H443   1.111       .  S
C439        H444   1.110       .  S
C439        H445   1.108       .  S
C442        H446   1.110       .  S
C442        H447   1.107       .  S
C442        H448   1.111       .  S
C449        C450   1.405       .  A
C449        C454   1.403       .  A
C449        H456   1.084       .  S
C450        C451   1.418       .  A
C451        C452   1.402       .  A
C451        C458   1.508       .  S
C452        C453   1.399       .  A
C452        H457   1.084       .  S
C453        C454   1.412       .  A
C454        C455   1.508       .  S
C455        H459   1.111       .  S
C455        H460   1.109       .  S
C455        H461   1.110       .  S
C458        H462   1.111       .  S
C458        H463   1.109       .  S
C458        H464   1.111       .  S
C465        C466   1.406       .  A
C465        C470   1.405       .  A
C465        H472   1.084       .  S
C466        C467   1.417       .  A
C467        C468   1.402       .  A
C467        C474   1.508       .  S
C468        C469   1.400       .  A
C468        H473   1.084       .  S
C469        C470   1.410       .  A
C470        C471   1.507       .  S
C471        H475   1.111       .  S
C471        H476   1.111       .  S
C471        H477   1.109       .  S
C474        H478   1.109       .  S
C474        H479   1.111       .  S
C474        H480   1.111       .  S
C481        C482   1.405       .  A
C481        C486   1.404       .  A
C481        H488   1.084       .  S
C482        C483   1.419       .  A
C483        C484   1.405       .  A
C483        C490   1.508       .  S
C484        C485   1.401       .  A
C484        H489   1.084       .  S
C485        C486   1.411       .  A
C486        C487   1.507       .  S
C487        H491   1.111       .  S
C487        H492   1.111       .  S
C487        H493   1.109       .  S
C490        H494   1.109       .  S
C490        H495   1.111       .  S
C490        H496   1.111       .  S
C497        C498   1.405       .  A
C497        C502   1.405       .  A
C497        H504   1.084       .  S
C498        C499   1.418       .  A
C499        C500   1.404       .  A
C499        C506   1.508       .  S
C500        C501   1.400       .  A
C500        H505   1.084       .  S
C501        C502   1.410       .  A
C502        C503   1.506       .  S
C503        H507   1.111       .  S
C503        H508   1.109       .  S
C503        H509   1.111       .  S
C506        H510   1.111       .  S
C506        H511   1.109       .  S
C506        H512   1.111       .  S
C513        C514   1.402       .  A
C513        C518   1.404       .  A
C513        H520   1.084       .  S
C514        C515   1.412       .  A
C515        C516   1.402       .  A
C515        C522   1.507       .  S
C516        C517   1.401       .  A
C516        H521   1.084       .  S
C517        C518   1.412       .  A
C518        C519   1.506       .  S
C519        H523   1.111       .  S
C519        H524   1.110       .  S
C519        H525   1.111       .  S
C522        H526   1.110       .  S
C522        H527   1.110       .  S
C522        H528   1.111       .  S
C529        C530   1.402       .  A
C529        C534   1.403       .  A
C529        H536   1.084       .  S
C530        C531   1.412       .  A
C531        C532   1.405       .  A
C531        C538   1.506       .  S
C532        C533   1.403       .  A
C532        H537   1.084       .  S
C533        C534   1.412       .  A
C534        C535   1.507       .  S
C535        H539   1.111       .  S
C535        H540   1.109       .  S
C535        H541   1.110       .  S
C538        H542   1.111       .  S
C538        H543   1.108       .  S
C538        H544   1.111       .  S
C545        C546   1.403       .  A
C545        C550   1.405       .  A
C545        H552   1.084       .  S
C546        C547   1.414       .  A
C547        C548   1.403       .  A
C547        C554   1.507       .  S
C548        C549   1.402       .  A
C548        H553   1.084       .  S
C549        C550   1.413       .  A
C550        C551   1.507       .  S
C551        H555   1.111       .  S
C551        H556   1.109       .  S
C551        H557   1.111       .  S
C554        H558   1.110       .  S
C554        H559   1.109       .  S
C554        H560   1.111       .  S
C561        C562   1.402       .  A
C561        C566   1.404       .  A
C561        H568   1.084       .  S
C562        C563   1.412       .  A
C563        C564   1.403       .  A
C563        C570   1.507       .  S
C564        C565   1.401       .  A
C564        H569   1.084       .  S
C565        C566   1.412       .  A
C566        C567   1.507       .  S
C567        H571   1.111       .  S
C567        H572   1.110       .  S
C567        H573   1.109       .  S
C570        H574   1.109       .  S
C570        H575   1.111       .  S
C570        H576   1.111       .  S
C577        C578   1.406       .  A
C577        C582   1.402       .  A
C577        H584   1.084       .  S
C578        C579   1.421       .  A
C579        C580   1.401       .  A
C579        C586   1.508       .  S
C580        C581   1.399       .  A
C580        H585   1.085       .  S
C581        C582   1.410       .  A
C582        C583   1.507       .  S
C583        H587   1.111       .  S
C583        H588   1.110       .  S
C583        H589   1.109       .  S
C586        H590   1.101       .  S
C586        H591   1.111       .  S
C586        H592   1.110       .  S
C593        C594   1.401       .  A
C593        C598   1.404       .  A
C593        H600   1.084       .  S
C594        C595   1.411       .  A
C595        C596   1.404       .  A
C595        C602   1.508       .  S
C596        C597   1.408       .  A
C596        H601   1.084       .  S
C597        C598   1.419       .  A
C598        C599   1.508       .  S
C599        H603   1.111       .  S
C599        H604   1.111       .  S
C599        H605   1.110       .  S
C602        H606   1.108       .  S
C602        H607   1.110       .  S
C602        H608   1.111       .  S
C609        C610   1.401       .  A
C609        C614   1.404       .  A
C609        H616   1.085       .  S
C610        C611   1.413       .  A
C611        C612   1.405       .  A
C611        C618   1.508       .  S
C612        C613   1.408       .  A
C612        H617   1.084       .  S
C613        C614   1.422       .  A
C614        C615   1.507       .  S
C615        H619   1.111       .  S
C615        H620   1.107       .  S
C615        H621   1.110       .  S
C618        H622   1.108       .  S
C618        H623   1.110       .  S
C618        H624   1.111       .  S
C625        C626   1.407       .  A
C625        C630   1.402       .  A
C625        H632   1.084       .  S
C626        C627   1.419       .  A
C627        C628   1.405       .  A
C627        C634   1.508       .  S
C628        C629   1.402       .  A
C628        H633   1.084       .  S
C629        C630   1.412       .  A
C630        C631   1.509       .  S
C631        H635   1.111       .  S
C631        H636   1.110       .  S
C631        H637   1.108       .  S
C634        H638   1.110       .  S
C634        H639   1.110       .  S
C634        H640   1.111       .  S
C641        C642   1.408       .  A
C641        C646   1.406       .  A
C641        H648   1.084       .  S
C642        C643   1.419       .  A
C643        C644   1.402       .  A
C643        C650   1.505       .  S
C644        C645   1.400       .  A
C644        H649   1.084       .  S
C645        C646   1.412       .  A
C646        C647   1.507       .  S
C647        H651   1.111       .  S
C647        H652   1.109       .  S
C647        H653   1.110       .  S
C650        H654   1.107       .  S
C650        H655   1.109       .  S
C650        H656   1.111       .  S
C657        C658   1.401       .  A
C657        C662   1.403       .  A
C657        H664   1.085       .  S
C658        C659   1.413       .  A
C659        C660   1.403       .  A
C659        C666   1.508       .  S
C660        C661   1.406       .  A
C660        H665   1.084       .  S
C661        C662   1.421       .  A
C662        C663   1.508       .  S
C663        H667   1.111       .  S
C663        H668   1.109       .  S
C663        H669   1.109       .  S
C666        H670   1.110       .  S
C666        H671   1.108       .  S
C666        H672   1.111       .  S
C673        C674   1.405       .  A
C673        C678   1.404       .  A
C673        H680   1.084       .  S
C674        C675   1.420       .  A
C675        C676   1.406       .  A
C675        C682   1.508       .  S
C676        C677   1.401       .  A
C676        H681   1.084       .  S
C677        C678   1.412       .  A
C678        C679   1.508       .  S
C679        H683   1.111       .  S
C679        H684   1.110       .  S
C679        H685   1.109       .  S
C682        H686   1.109       .  S
C682        H687   1.111       .  S
C682        H688   1.111       .  S
C689        C690   1.405       .  A
C689        C694   1.402       .  A
C689        H696   1.084       .  S
C690        C691   1.418       .  A
C691        C692   1.405       .  A
C691        C698   1.508       .  S
C692        C693   1.402       .  A
C692        H697   1.084       .  S
C693        C694   1.412       .  A
C694        C695   1.507       .  S
C695        H699   1.111       .  S
C695        H700   1.107       .  S
C695        H701   1.110       .  S
C698        H702   1.111       .  S
C698        H703   1.109       .  S
C698        H704   1.111       .  S
C705        C706   1.402       .  A
C705        C710   1.403       .  A
C705        H712   1.084       .  S
C706        C707   1.413       .  A
C707        C708   1.403       .  A
C707        C714   1.507       .  S
C708        C709   1.402       .  A
C708        H713   1.084       .  S
C709        C710   1.413       .  A
C710        C711   1.507       .  S
C711        H715   1.111       .  S
C711        H716   1.109       .  S
C711        H717   1.111       .  S
C714        H718   1.110       .  S
C714        H719   1.109       .  S
C714        H720   1.111       .  S
C721        C722   1.401       .  A
C721        C726   1.405       .  A
C721        H728   1.084       .  S
C722        C723   1.411       .  A
C723        C724   1.403       .  A
C723        C730   1.508       .  S
C724        C725   1.408       .  A
C724        H729   1.084       .  S
C725        C726   1.420       .  A
C726        C727   1.507       .  S
C727        H731   1.111       .  S
C727        H732   1.108       .  S
C727        H733   1.110       .  S
C730        H734   1.108       .  S
C730        H735   1.111       .  S
C730        H736   1.111       .  S
C737        C738   1.403       .  A
C737        C742   1.405       .  A
C737        H744   1.084       .  S
C738        C739   1.416       .  A
C739        C740   1.403       .  A
C739        C746   1.508       .  S
C740        C741   1.402       .  A
C740        H745   1.085       .  S
C741        C742   1.413       .  A
C742        C743   1.507       .  S
C743        H747   1.111       .  S
C743        H748   1.111       .  S
C743        H749   1.108       .  S
C746        H750   1.110       .  S
C746        H751   1.108       .  S
C746        H752   1.110       .  S
C753        C754   1.406       .  A
C753        C758   1.405       .  A
C753        H760   1.085       .  S
C754        C755   1.419       .  A
C755        C756   1.405       .  A
C755        C762   1.508       .  S
C756        C757   1.402       .  A
C756        H761   1.084       .  S
C757        C758   1.415       .  A
C758        C759   1.508       .  S
C759        H763   1.111       .  S
C759        H764   1.107       .  S
C759        H765   1.110       .  S
C762        H766   1.109       .  S
C762        H767   1.111       .  S
C762        H768   1.111       .  S
C769        C770   1.402       .  A
C769        C774   1.401       .  A
C769        H776   1.085       .  S
C770        C771   1.413       .  A
C771        C772   1.403       .  A
C771        C778   1.508       .  S
C772        C773   1.405       .  A
C772        H777   1.084       .  S
C773        C774   1.414       .  A
C774        C775   1.506       .  S
C775        H779   1.111       .  S
C775        H780   1.110       .  S
C775        H781   1.106       .  S
C778        H782   1.108       .  S
C778        H783   1.110       .  S
C778        H784   1.111       .  S
C785        C786   1.399       .  A
C785        C790   1.403       .  A
C785        H792   1.085       .  S
C786        C787   1.412       .  A
C787        C788   1.403       .  A
C787        C794   1.508       .  S
C788        C789   1.407       .  A
C788        H793   1.084       .  S
C789        C790   1.421       .  A
C790        C791   1.507       .  S
C791        H795   1.111       .  S
C791        H796   1.109       .  S
C791        H797   1.106       .  S
C794        H798   1.111       .  S
C794        H799   1.108       .  S
C794        H800   1.111       .  S
C801        C802   1.403       .  A
C801        C806   1.405       .  A
C801        H808   1.084       .  S
C802        C803   1.411       .  A
C803        C804   1.402       .  A
C803        C810   1.507       .  S
C804        C805   1.401       .  A
C804        H809   1.084       .  S
C805        C806   1.411       .  A
C806        C807   1.506       .  S
C807        H811   1.111       .  S
C807        H812   1.110       .  S
C807        H813   1.111       .  S
C810        H814   1.111       .  S
C810        H815   1.110       .  S
C810        H816   1.111       .  S
C817        C818   1.401       .  A
C817        C822   1.404       .  A
C817        H824   1.084       .  S
C818        C819   1.410       .  A
C819        C820   1.401       .  A
C819        C826   1.507       .  S
C820        C821   1.403       .  A
C820        H825   1.084       .  S
C821        C822   1.415       .  A
C822        C823   1.508       .  S
C823        H827   1.111       .  S
C823        H828   1.111       .  S
C823        H829   1.109       .  S
C826        H830   1.110       .  S
C826        H831   1.111       .  S
C826        H832   1.111       .  S
C833        C834   1.407       .  A
C833        C838   1.401       .  A
C833        H840   1.084       .  S
C834        C835   1.421       .  A
C835        C836   1.406       .  A
C835        C842   1.508       .  S
C836        C837   1.402       .  A
C836        H841   1.084       .  S
C837        C838   1.412       .  A
C838        C839   1.509       .  S
C839        H843   1.111       .  S
C839        H844   1.108       .  S
C839        H845   1.110       .  S
C842        H846   1.111       .  S
C842        H847   1.109       .  S
C842        H848   1.111       .  S
C849        C850   1.400       .  A
C849        C854   1.404       .  A
C849        H856   1.084       .  S
C850        C851   1.415       .  A
C851        C852   1.402       .  A
C851        C858   1.509       .  S
C852        C853   1.405       .  A
C852        H857   1.084       .  S
C853        C854   1.420       .  A
C854        C855   1.508       .  S
C855        H859   1.111       .  S
C855        H860   1.109       .  S
C855        H861   1.111       .  S
C858        H862   1.110       .  S
C858        H863   1.107       .  S
C858        H864   1.110       .  S
C865        C866   1.407       .  A
C865        C870   1.404       .  A
C865        H872   1.083       .  S
C866        C867   1.417       .  A
C867        C868   1.403       .  A
C867        C874   1.508       .  S
C868        C869   1.402       .  A
C868        H873   1.083       .  S
C869        C870   1.411       .  A
C870        C871   1.507       .  S
C871        H875   1.111       .  S
C871        H876   1.109       .  S
C871        H877   1.110       .  S
C874        H878   1.110       .  S
C874        H879   1.109       .  S
C874        H880   1.111       .  S
C881        C882   1.403       .  A
C881        C886   1.407       .  A
C881        H888   1.084       .  S
C882        C883   1.413       .  A
C883        C884   1.404       .  A
C883        C890   1.509       .  S
C884        C885   1.408       .  A
C884        H889   1.084       .  S
C885        C886   1.420       .  A
C886        C887   1.507       .  S
C887        H891   1.111       .  S
C887        H892   1.110       .  S
C887        H893   1.109       .  S
C890        H894   1.110       .  S
C890        H895   1.108       .  S
C890        H896   1.111       .  S
