geometry optimzed in LAMMPS
_audit_creation_date              2020-12-01 
_audit_creation_method            'lammps2cif' 
_symmetry_space_group_name_H-M    'P1' 
_symmetry_Int_Tables_number       1 
_symmetry_cell_setting            triclinic 
loop_ 
_symmetry_equiv_pos_as_xyz 
  x,y,z 
_cell_length_a                    36.03471186 
_cell_length_b                    35.76938221147944 
_cell_length_c                    35.86739655104183 
_cell_angle_alpha                 90.11986800269436 
_cell_angle_beta                  89.9722880586491 
_cell_angle_gamma                 90.21854307756968 
loop_ 
_atom_site_label 
_atom_site_type_symbol 
_atom_site_fract_x 
_atom_site_fract_y 
_atom_site_fract_z 
_atom_site_charge 
Fe1        Fe  0.19474125  0.57940634  0.50389825     1.65800
Fe2        Fe  0.10936494  0.57535465  0.53873214     1.73200
Fe3        Fe  0.17249769  0.63010711  0.57936746     1.54400
O4          O  0.20999748  0.59086441  0.59805407    -0.80500
O5          O  0.08663149  0.62634161  0.55814629    -0.78800
O6          O  0.23707576  0.57616451  0.54406904    -0.83000
O7          O  0.20609550  0.63352937  0.49038606    -0.77900
O8          O  0.13211577  0.60847032  0.61720770    -0.79700
O9          O  0.09943831  0.59425848  0.48695112    -0.82400
C10         C  0.22351357  0.65503260  0.51209249     0.98300
C11         C  0.23490185  0.57359832  0.57960172     1.05800
O12         O  0.15866763  0.59574935  0.53967130    -1.11400
O13         O  0.12495749  0.52314312  0.51647213    -0.73800
O14         O  0.18642542  0.52400287  0.51345085    -0.77300
O15         O  0.21596373  0.65582828  0.54705473    -0.78000
C16         C  0.15587536  0.50726497  0.50972114     0.97300
O17         O  0.15455756  0.57898383  0.46225701    -0.76000
O18         O  0.11927081  0.55463420  0.59017241    -0.81200
C19         C  0.09784761  0.66044595  0.55959639     0.99900
C20         C  0.11659479  0.57628405  0.61762387     1.05800
O21         O  0.13252238  0.66850837  0.56150977    -0.76800
C22         C  0.12006871  0.58680909  0.45960920     1.04100
Fe23       Fe  0.17594230  0.52784234  0.25638963     1.65800
Fe24       Fe  0.16783930  0.62056486  0.25072923     1.73200
Fe25       Fe  0.12623872  0.56377222  0.18784247     1.54400
O26         O  0.16439579  0.52215552  0.16959728    -0.80500
O27         O  0.11449625  0.64143821  0.24348272    -0.78800
O28         O  0.21003628  0.51828836  0.21210327    -0.83000
O29         O  0.14006171  0.49138618  0.23152873    -0.77900
O30         O  0.15770566  0.60228595  0.15669060    -0.79700
O31         O  0.15185845  0.60169281  0.30225681    -0.82400
C32         C  0.10577762  0.49590784  0.23285958     0.98300
C33         C  0.19709241  0.51149331  0.17962951     1.05800
O34         O  0.15716758  0.57181247  0.23092059    -1.11400
O35         O  0.22338890  0.60799641  0.25957002    -0.73800
O36         O  0.21733582  0.55330433  0.28676492    -0.77300
O37         O  0.09230820  0.52559504  0.21885812    -0.78000
C38         C  0.23599478  0.58222671  0.27996993     0.97300
O39         O  0.13928499  0.54013656  0.29816634    -0.76000
O40         O  0.18321432  0.64014196  0.19994050    -0.81200
C41         C  0.08737415  0.63463650  0.22182446     0.99900
C42         C  0.17816598  0.62999704  0.16641342     1.05800
O43         O  0.08735265  0.60598501  0.20045749    -0.76800
C44         C  0.13549022  0.57208723  0.31362705     1.04100
Fe45       Fe  0.25868767  0.14115336  0.55078452     1.65800
Fe46       Fe  0.24318099  0.13799393  0.64193122     1.73200
Fe47       Fe  0.18497005  0.09296342  0.58494594     1.54400
O48         O  0.16298646  0.13213307  0.54930281    -0.80500
O49         O  0.21859543  0.09161469  0.66725346    -0.78800
O50         O  0.21255793  0.15434931  0.51909511    -0.83000
O51         O  0.26249128  0.08979957  0.52771783    -0.77900
O52         O  0.15763742  0.12074508  0.63001277    -0.79700
O53         O  0.28952567  0.10796930  0.63712020    -0.82400
C54         C  0.23841781  0.06527928  0.52036445     0.98300
C55         C  0.17757516  0.15224839  0.52399928     1.05800
O56         O  0.22906034  0.12347595  0.59198169    -1.11400
O57         O  0.27288919  0.18636067  0.62687651    -0.73800
O58         O  0.25849741  0.19586812  0.56810103    -0.77300
O59         O  0.20744740  0.06307771  0.53803317    -0.78000
C60         C  0.27334733  0.20675356  0.59794922     0.97300
O61         O  0.30677820  0.12828265  0.58038114    -0.76000
O62         O  0.19568618  0.16765279  0.64585507    -0.81200
C63         C  0.21056309  0.05869397  0.65634176     0.99900
C64         C  0.16457267  0.15123173  0.64781760     1.05800
O65         O  0.20397122  0.05201007  0.62198914    -0.76800
C66         C  0.31322271  0.11229415  0.61161223     1.04100
Fe67       Fe  0.50721669  0.18381621  0.58315993     1.65800
Fe68       Fe  0.53727151  0.09570599  0.59017146     1.73200
Fe69       Fe  0.58645350  0.16471438  0.63046363     1.54400
O70         O  0.60109310  0.20345707  0.59083247    -0.80500
O71         O  0.56379310  0.07679492  0.63795823    -0.78800
O72         O  0.54687581  0.22322735  0.56785008    -0.83000
O73         O  0.50046946  0.20747776  0.63402094    -0.77900
O74         O  0.62188494  0.12573862  0.60161245    -0.79700
O75         O  0.48962573  0.09372762  0.61884376    -0.82400
C76         C  0.52339549  0.21989266  0.65754074     0.98300
C77         C  0.58203174  0.22558359  0.57086205     1.05800
O78         O  0.54366947  0.14862203  0.60137034    -1.11400
O79         O  0.50880337  0.10385901  0.54041023    -0.73800
O80         O  0.50867980  0.16466711  0.52936913    -0.77300
O81         O  0.55681768  0.20774843  0.65960304    -0.78000
C82         C  0.50295685  0.13145175  0.51905337     0.97300
O83         O  0.46501401  0.14710640  0.59742425    -0.76000
O84         O  0.58429339  0.09725500  0.56090786    -0.81200
C85         C  0.56780266  0.09158530  0.66989875     0.99900
C86         C  0.61632295  0.10649688  0.57169573     1.05800
O87         O  0.57333433  0.12667797  0.67314527    -0.76800
C88         C  0.46277364  0.11555856  0.61387885     1.04100
Fe89       Fe  0.58527702  0.49847595  0.20288582     1.65800
Fe90       Fe  0.58899440  0.52237075  0.11343808     1.73200
Fe91       Fe  0.63481370  0.57452235  0.17508641     1.54400
O92         O  0.59593799  0.59479617  0.21267647    -0.80500
O93         O  0.63692779  0.54625840  0.09046490    -0.78800
O94         O  0.57530469  0.54240356  0.23971708    -0.83000
O95         O  0.63720634  0.49057402  0.22338617    -0.77900
O96         O  0.60940958  0.60657055  0.13118035    -0.79700
O97         O  0.61581778  0.47340771  0.11353731    -0.82400
C98         C  0.66134443  0.51400695  0.23378836     0.98300
C99         C  0.57754674  0.57801265  0.23807362     1.05800
O100        O  0.60344222  0.53151945  0.16436046    -1.11400
O101        O  0.53940032  0.49529399  0.12606046    -0.73800
O102        O  0.53051733  0.50127309  0.18676800    -0.77300
O103        O  0.66301449  0.54722611  0.22026621    -0.78000
C104        C  0.51920275  0.49178384  0.15479231     0.97300
O105        O  0.59383089  0.45261333  0.16836794    -0.76000
O106        O  0.56142915  0.57118546  0.11454989    -0.81200
C107        C  0.66982911  0.55118549  0.10253627     0.99900
C108        C  0.57918464  0.60146633  0.11270150     1.05800
O109        O  0.67568127  0.55640264  0.13729255    -0.76800
C110        C  0.60841784  0.44763019  0.13627439     1.04100
Fe111      Fe  0.55950274  0.24075379  0.17261288     1.65800
Fe112      Fe  0.64993142  0.22946331  0.16074883     1.73200
Fe113      Fe  0.59189819  0.16633335  0.12379085     1.54400
O114        O  0.55625463  0.14552030  0.16412839    -0.80500
O115        O  0.67378777  0.20249169  0.11574582    -0.78800
O116        O  0.53013401  0.19541779  0.19033290    -0.83000
O117        O  0.53130218  0.24178100  0.12403408    -0.77900
O118        O  0.63632646  0.14009846  0.15401247    -0.79700
O119        O  0.63977994  0.27381491  0.12799805    -0.82400
C120        C  0.52615499  0.21891910  0.09771981     0.98300
C121        C  0.53342518  0.16042190  0.18676243     1.05800
O122        O  0.59977626  0.21189214  0.15183905    -1.11400
O123        O  0.63752176  0.26160942  0.20767962    -0.73800
O124        O  0.58233069  0.24189793  0.22477422    -0.77300
O125        O  0.54574983  0.18916450  0.09350131    -0.78000
C126        C  0.61169976  0.25958801  0.23152637     0.97300
O127        O  0.58588147  0.28905865  0.15541935    -0.76000
O128        O  0.65837972  0.18422759  0.19295997    -0.81200
C129        C  0.66172529  0.19231875  0.08418505     0.99900
C130        C  0.65548239  0.15034392  0.18275421     1.05800
O131        O  0.62775584  0.18303754  0.08030730    -0.76800
C132        C  0.61342321  0.29625601  0.13411828     1.04100
Fe133      Fe  0.69809991  0.91495427  0.50026576     1.65800
Fe134      Fe  0.61362253  0.92256889  0.46426122     1.73200
Fe135      Fe  0.67252315  0.86104103  0.42800337     1.54400
O136        O  0.71159747  0.89665379  0.40630592    -0.80500
O137        O  0.58766886  0.87135534  0.44948937    -0.78800
O138        O  0.73972466  0.91141275  0.45998848    -0.83000
O139        O  0.70482114  0.86094395  0.51655344    -0.77900
O140        O  0.63191366  0.88096443  0.38927418    -0.79700
O141        O  0.60270340  0.90871543  0.51740575    -0.82400
C142        C  0.72282432  0.83861208  0.49634179     0.98300
C143        C  0.73766998  0.91252473  0.42442977     1.05800
O144        O  0.66117196  0.89910349  0.46515792    -1.11400
O145        O  0.63310203  0.97525826  0.48203880    -0.73800
O146        O  0.69423632  0.97061239  0.48794220    -0.77300
O147        O  0.71564993  0.83605597  0.46138661    -0.78000
C148        C  0.66477478  0.98953842  0.48946497     0.97300
O149        O  0.65868854  0.92103630  0.54190730    -0.76000
O150        O  0.62469642  0.93769984  0.41105207    -0.81200
C151        C  0.59695715  0.83669998  0.45017755     0.99900
C152        C  0.61736430  0.91341828  0.38682350     1.05800
O153        O  0.63107243  0.82666793  0.44953214    -0.76800
C154        C  0.62378851  0.91551505  0.54459659     1.04100
Fe155      Fe  0.66609940  0.95394017  0.75359281     1.65800
Fe156      Fe  0.65406682  0.86111488  0.75085652     1.73200
Fe157      Fe  0.61881515  0.91288616  0.82126454     1.54400
O158        O  0.65696934  0.95372320  0.84043840    -0.80500
O159        O  0.60108827  0.84001405  0.76030524    -0.78800
O160        O  0.70157605  0.95852352  0.79720390    -0.83000
O161        O  0.63105093  0.98773803  0.78283243    -0.77900
O162        O  0.65331452  0.87315986  0.84686379    -0.79700
O163        O  0.63465512  0.88489620  0.70236292    -0.82400
C164        C  0.59668847  0.98325933  0.78191950     0.98300
C165        C  0.68953557  0.96425855  0.83007439     1.05800
O166        O  0.64660290  0.90816100  0.77549725    -1.11400
O167        O  0.70936517  0.87319248  0.73949871    -0.73800
O168        O  0.70695519  0.93139696  0.72015327    -0.77300
O169        O  0.58324539  0.95280186  0.79470471    -0.78000
C170        C  0.72425241  0.90121646  0.72401949     0.97300
O171        O  0.62865062  0.94692114  0.71173800    -0.76000
O172        O  0.67286862  0.83760079  0.79888331    -0.81200
C173        C  0.57694232  0.84435576  0.78571869     0.99900
C174        C  0.67263195  0.84634097  0.83327694     1.05800
O175        O  0.57960425  0.87095334  0.80930966    -0.76800
C176        C  0.62230415  0.91712629  0.69323505     1.04100
Fe177      Fe  0.26359838  0.81367165  0.05743027     1.65800
Fe178      Fe  0.28699867  0.82334235  0.14667699     1.73200
Fe179      Fe  0.33938969  0.86447395  0.08134776     1.54400
O180        O  0.35784636  0.82501219  0.04409186    -0.80500
O181        O  0.31167820  0.87189906  0.16752873    -0.78800
O182        O  0.30566391  0.80142188  0.02019583    -0.83000
O183        O  0.25512507  0.86422464  0.03396707    -0.77900
O184        O  0.37288072  0.83672262  0.12266923    -0.79700
O185        O  0.23938202  0.85130480  0.14427109    -0.82400
C186        C  0.27749916  0.88924400  0.02345173     0.98300
C187        C  0.34080048  0.80475821  0.02051347     1.05800
O188        O  0.29673805  0.83419230  0.09462099    -1.11400
O189        O  0.25907213  0.77309015  0.13643988    -0.73800
O190        O  0.26840689  0.76022539  0.07692041    -0.77300
O191        O  0.31040777  0.89254946  0.03705434    -0.78000
C192        C  0.25730420  0.75088423  0.10885841     0.97300
O193        O  0.21851557  0.82469126  0.09152331    -0.76000
O194        O  0.33435013  0.79497597  0.14850251    -0.81200
C195        C  0.31721912  0.90382405  0.15307516     0.99900
C196        C  0.36667207  0.80682459  0.14179083     1.05800
O197        O  0.32352107  0.90695665  0.11826734    -0.76800
C198        C  0.21388002  0.84283915  0.12182573     1.04100
Fe199      Fe  0.00758858  0.78558112  0.09783703     1.65800
Fe200      Fe  0.99290916  0.87701110  0.10687880     1.73200
Fe201      Fe  0.93701333  0.81748000  0.15222202     1.54400
O202        O  0.91336362  0.78096991  0.11388887    -0.80500
O203        O  0.96983780  0.90103400  0.15459181    -0.78800
O204        O  0.96109348  0.75507603  0.08371790    -0.83000
O205        O  0.01294170  0.75801820  0.14680555    -0.77900
O206        O  0.90744222  0.86186651  0.12573362    -0.79700
O207        O  0.04035441  0.87068370  0.13488185    -0.82400
C208        C  0.99284900  0.75287539  0.17510732     0.98300
C209        C  0.92651673  0.75813789  0.09006335     1.05800
O210        O  0.97923434  0.82606295  0.11953817    -1.11400
O211        O  0.02133719  0.86474640  0.05701496    -0.73800
O212        O  0.00602743  0.80655072  0.04465676    -0.77300
O213        O  0.96313579  0.77182763  0.18109798    -0.78000
C214        C  0.02104891  0.83683018  0.03515589     0.97300
O215        O  0.05583360  0.81433779  0.11140820    -0.76000
O216        O  0.94423328  0.88194768  0.07932554    -0.81200
C217        C  0.96240405  0.88958781  0.18728543     0.99900
C218        C  0.91324463  0.88129135  0.09607712     1.05800
O219        O  0.95630621  0.85495504  0.19323725    -0.76800
C220        C  0.06329481  0.84484370  0.12857804     1.04100
Fe221      Fe  0.41711753  0.99066214  0.29015706     1.65800
Fe222      Fe  0.40536700  0.98901646  0.38228691     1.73200
Fe223      Fe  0.36987893  0.05890910  0.33045526     1.54400
O224        O  0.40981335  0.07764652  0.29076597    -0.80500
O225        O  0.35286157  0.99890191  0.40279833    -0.78800
O226        O  0.45357901  0.03338236  0.28664840    -0.83000
O227        O  0.38321838  0.02069054  0.25599232    -0.77900
O228        O  0.40338449  0.08527370  0.37101756    -0.79700
O229        O  0.38467706  0.94062384  0.35856481    -0.82400
C230        C  0.34885650  0.01877665  0.25987445     0.98300
C231        C  0.44240701  0.06653643  0.28084352     1.05800
O232        O  0.39784173  0.01329203  0.33550940    -1.11400
O233        O  0.46038512  0.97686338  0.37071034    -0.73800
O234        O  0.45676443  0.95607298  0.31319352    -0.77300
O235        O  0.33496645  0.03171519  0.28994497    -0.78000
C236        C  0.47440441  0.96000912  0.34318551     0.97300
O237        O  0.37828759  0.95012198  0.29673202    -0.76000
O238        O  0.42486638  0.03734348  0.40535606    -0.81200
C239        C  0.32756266  0.02290088  0.39805198     0.99900
C240        C  0.42346977  0.07194162  0.39733180     1.05800
O241        O  0.32925409  0.04649237  0.37138235    -0.76800
C242        C  0.37110449  0.93227638  0.32655523     1.04100
Fe243      Fe  0.44853704  0.74310378  0.33766203     1.65800
Fe244      Fe  0.36390173  0.70714496  0.33302572     1.73200
Fe245      Fe  0.42358733  0.67175572  0.39351299     1.54400
O246        O  0.46270117  0.65023975  0.35810862    -0.80500
O247        O  0.33847677  0.69081403  0.38385460    -0.78800
O248        O  0.49081943  0.70271816  0.33974494    -0.83000
O249        O  0.45755399  0.76115863  0.39089371    -0.77900
O250        O  0.38432119  0.63194506  0.37275077    -0.79700
O251        O  0.35278357  0.75986020  0.34807765    -0.82400
C252        C  0.47356724  0.74117052  0.41487751     0.98300
C253        C  0.48826758  0.66697126  0.34017097     1.05800
O254        O  0.41181331  0.70865302  0.35567393    -1.11400
O255        O  0.38155884  0.72589107  0.28026688    -0.73800
O256        O  0.44286817  0.72890151  0.28281127    -0.77300
O257        O  0.46553732  0.70639516  0.41839753    -0.78000
C258        C  0.41296605  0.73153580  0.26486115     0.97300
O259        O  0.40793308  0.78428670  0.33179828    -0.76000
O260        O  0.37666209  0.65488176  0.31661498    -0.81200
C261        C  0.34776671  0.69192205  0.41841134     0.99900
C262        C  0.37114045  0.62927754  0.33976331     1.05800
O263        O  0.38192447  0.69225409  0.42826490    -0.76800
C264        C  0.37305919  0.78684867  0.33827658     1.04100
Fe265      Fe  0.50899516  0.68758599  0.90718407     1.65800
Fe266      Fe  0.48927371  0.59670017  0.90439330     1.73200
Fe267      Fe  0.43449521  0.65621372  0.85889185     1.54400
O268        O  0.41377315  0.69147432  0.89906765    -0.80500
O269        O  0.46567296  0.57299494  0.85640723    -0.78800
O270        O  0.46428834  0.72176254  0.91911033    -0.83000
O271        O  0.51517593  0.70910711  0.85523159    -0.77900
O272        O  0.40479281  0.61133966  0.88448828    -0.79700
O273        O  0.53748174  0.59893375  0.87667423    -0.82400
C274        C  0.49067624  0.71919421  0.83236867     0.98300
C275        C  0.42926089  0.71691597  0.91848119     1.05800
O276        O  0.47795036  0.64725388  0.88952861    -1.11400
O277        O  0.51671363  0.61077548  0.95418579    -0.73800
O278        O  0.50687848  0.67114708  0.96198172    -0.77300
O279        O  0.45867126  0.70336752  0.83083263    -0.78000
C280        C  0.51802544  0.64014801  0.97411767     0.97300
O281        O  0.55558023  0.65596609  0.89604958    -0.76000
O282        O  0.44060627  0.59517398  0.93236232    -0.81200
C283        C  0.45849451  0.58464370  0.82360386     0.99900
C284        C  0.41018462  0.59349569  0.91500508     1.05800
O285        O  0.45295776  0.61935350  0.81748952    -0.76800
C286        C  0.56147086  0.62440934  0.88047433     1.04100
Fe287      Fe  0.75668514  0.66509161  0.94957904     1.65800
Fe288      Fe  0.78498550  0.65624179  0.86136103     1.73200
Fe289      Fe  0.83263142  0.61333910  0.92814877     1.54400
O290        O  0.85058356  0.65304893  0.96567257    -0.80500
O291        O  0.80978041  0.60747166  0.84190165    -0.78800
O292        O  0.79829106  0.67852757  0.98765352    -0.83000
O293        O  0.74763433  0.61474497  0.97372716    -0.77900
O294        O  0.86803016  0.63893974  0.88648007    -0.79700
O295        O  0.73665783  0.62888495  0.86050500    -0.82400
C296        C  0.76925895  0.58961512  0.98502292     0.98300
C297        C  0.83338836  0.67397738  0.98861842     1.05800
O298        O  0.79130989  0.64470741  0.91368495    -1.11400
O299        O  0.75796074  0.70635681  0.86984029    -0.73800
O300        O  0.76031651  0.71888763  0.93010958    -0.77300
O301        O  0.80239721  0.58605462  0.97223714    -0.78000
C302        C  0.75374737  0.72857771  0.89701176     0.97300
O303        O  0.71318336  0.65206951  0.91387396    -0.76000
O304        O  0.83302853  0.68438543  0.86289795    -0.81200
C305        C  0.81185674  0.57505717  0.85612638     0.99900
C306        C  0.86412005  0.66907792  0.86717026     1.05800
O307        O  0.81609370  0.57104826  0.89114041    -0.76800
C308        C  0.71033532  0.63451419  0.88290619     1.04100
Fe309      Fe  0.30758638  0.40122596  0.99982967     1.65800
Fe310      Fe  0.39852626  0.38805815  0.01056506     1.73200
Fe311      Fe  0.33960258  0.35126308  0.07371879     1.54400
O312        O  0.30455117  0.39190422  0.09487097    -0.80500
O313        O  0.42127767  0.34102599  0.03523293    -0.78800
O314        O  0.27940025  0.42035077  0.04591376    -0.83000
O315        O  0.27820490  0.35306188  0.99952053    -0.77900
O316        O  0.38380795  0.38065250  0.10055339    -0.79700
O317        O  0.38765734  0.35737276  0.96454687    -0.82400
C318        C  0.27317844  0.32630704  0.02181769     0.98300
C319        C  0.28266157  0.41585386  0.08081413     1.05800
O320        O  0.34804773  0.37959191  0.02816332    -1.11400
O321        O  0.38740069  0.43679020  0.98054123    -0.73800
O322        O  0.33115683  0.45325998  0.99764910    -0.77300
O323        O  0.29336223  0.32122622  0.05088277    -0.78000
C324        C  0.36141997  0.46049846  0.98184588     0.97300
O325        O  0.33258784  0.38314197  0.95084302    -0.76000
O326        O  0.40842322  0.41865651  0.05712852    -0.81200
C327        C  0.40882128  0.31037602  0.04782157     0.99900
C328        C  0.40380758  0.40891514  0.09086284     1.05800
O329        O  0.37500044  0.30739569  0.05781908    -0.76800
C330        C  0.36089390  0.36332316  0.94251741     1.04100
Fe331      Fe  0.33645929  0.43216483  0.74115506     1.65800
Fe332      Fe  0.34034388  0.34352999  0.71272035     1.73200
Fe333      Fe  0.38782793  0.40843687  0.66548098     1.54400
O334        O  0.34728663  0.44431430  0.64500595    -0.80500
O335        O  0.39135181  0.32359965  0.69281574    -0.78800
O336        O  0.32638840  0.46996025  0.69794501    -0.83000
O337        O  0.38829567  0.45254366  0.75076221    -0.77900
O338        O  0.36738908  0.36385648  0.63103283    -0.79700
O339        O  0.36253263  0.34044998  0.76411616    -0.82400
C340        C  0.41134513  0.46590932  0.72794388     0.98300
C341        C  0.32802470  0.46880924  0.66232195     1.05800
O342        O  0.35526686  0.39502412  0.70704694    -1.11400
O343        O  0.28837763  0.35446563  0.73612155    -0.73800
O344        O  0.28179873  0.41595689  0.73758483    -0.77300
O345        O  0.41291093  0.45468150  0.69404846    -0.78000
C346        C  0.26925063  0.38341652  0.74311916     0.97300
O347        O  0.34472980  0.39651198  0.78590221    -0.76000
O348        O  0.31691608  0.34667133  0.66156073    -0.81200
C349        C  0.42411203  0.33714700  0.69016853     0.99900
C350        C  0.33753931  0.34443778  0.63339086     1.05800
O351        O  0.42924792  0.37216085  0.68494430    -0.76800
C352        C  0.35699595  0.36337556  0.79027418     1.04100
Fe353      Fe  0.05150726  0.24049816  0.83839878     1.65800
Fe354      Fe  0.14421110  0.24660201  0.85057515     1.73200
Fe355      Fe  0.08660327  0.31157983  0.88683357     1.54400
O356        O  0.04363796  0.32739380  0.85053606    -0.80500
O357        O  0.16274850  0.25615971  0.90430876    -0.78800
O358        O  0.04011459  0.28486824  0.80480926    -0.83000
O359        O  0.01494943  0.26253102  0.87628204    -0.77900
O360        O  0.12379763  0.34132566  0.85146170    -0.79700
O361        O  0.12583602  0.19561258  0.86850607    -0.82400
C362        C  0.02062568  0.26438746  0.91071976     0.98300
C363        C  0.03214537  0.31674942  0.81839490     1.05800
O364        O  0.09496815  0.26669413  0.85800524    -1.11400
O365        O  0.13485597  0.23429710  0.79503009    -0.73800
O366        O  0.07740132  0.21274497  0.79518652    -0.77300
O367        O  0.04971103  0.28112051  0.92270195    -0.78000
C368        C  0.10853705  0.21666787  0.77968161     0.97300
O369        O  0.06371631  0.19768648  0.87374052    -0.76000
O370        O  0.16376969  0.29684916  0.83274156    -0.81200
C371        C  0.15583110  0.28012986  0.92934204     0.99900
C372        C  0.15201581  0.33024719  0.83246059     1.05800
O373        O  0.12873018  0.30261635  0.92608692    -0.76800
C374        C  0.09502262  0.18264796  0.88032459     1.04100
Fe375      Fe  0.09129753  0.98255920  0.81169017     1.65800
Fe376      Fe  0.09523830  0.95649208  0.90033836     1.73200
Fe377      Fe  0.14058340  0.90624906  0.83692376     1.54400
O378        O  0.09995692  0.88684644  0.80096582    -0.80500
O379        O  0.14533330  0.93559152  0.92155580    -0.78800
O380        O  0.08478115  0.94008745  0.77257858    -0.83000
O381        O  0.14437268  0.99288502  0.79453121    -0.77900
O382        O  0.11789064  0.87237374  0.88100198    -0.79700
O383        O  0.11880533  0.00762814  0.90153170    -0.82400
C384        C  0.16569926  0.96895186  0.77997798     0.98300
C385        C  0.08379355  0.90453559  0.77479029     1.05800
O386        O  0.10952305  0.94881648  0.84940416    -1.11400
O387        O  0.04353487  0.97902399  0.88742233    -0.73800
O388        O  0.03613519  0.97605409  0.82603883    -0.77300
O389        O  0.16618763  0.93481619  0.79100321    -0.78000
C390        C  0.02331820  0.98168600  0.85846366     0.97300
O391        O  0.09472860  0.02758401  0.84777628    -0.76000
O392        O  0.07001914  0.90640077  0.89913896    -0.81200
C393        C  0.17770041  0.92974240  0.90827803     0.99900
C394        C  0.08795183  0.87643859  0.89997595     1.05800
O395        O  0.18248351  0.92407288  0.87340900    -0.76800
C396        C  0.10708317  0.03318944  0.88059449     1.04100
Fe397      Fe  0.94774451  0.74540722  0.66889900     1.65800
Fe398      Fe  0.86173884  0.77769752  0.67537504     1.73200
Fe399      Fe  0.92244277  0.82183916  0.62059524     1.54400
O400        O  0.96111768  0.84064899  0.65848592    -0.80500
O401        O  0.83742012  0.79919647  0.62640501    -0.78800
O402        O  0.98866472  0.78676411  0.67316964    -0.83000
O403        O  0.95882596  0.73435481  0.61451518    -0.77900
O404        O  0.88167117  0.85797878  0.64472866    -0.79700
O405        O  0.85302695  0.72640996  0.65380564    -0.82400
C406        C  0.97554632  0.75695650  0.59359745     0.98300
C407        C  0.98696536  0.82243598  0.67443269     1.05800
O408        O  0.91063360  0.78087312  0.65437778    -1.11400
O409        O  0.87819124  0.75309855  0.72602377    -0.73800
O410        O  0.93961426  0.75133319  0.72520805    -0.77300
O411        O  0.96641099  0.79160628  0.59295199    -0.78000
C412        C  0.90909847  0.74586110  0.74161116     0.97300
O413        O  0.90929082  0.70262787  0.66620769    -0.76000
O414        O  0.87109723  0.82883506  0.69768781    -0.81200
C415        C  0.84701459  0.80207285  0.59210361     0.99900
C416        C  0.86618234  0.85664153  0.67685359     1.05800
O417        O  0.88138382  0.80403194  0.58283333    -0.76800
C418        C  0.87524555  0.69945285  0.65697300     1.04100
Fe419      Fe  0.92313637  0.49286904  0.71271883     1.65800
Fe420      Fe  0.91546637  0.48108320  0.62129597     1.73200
Fe421      Fe  0.87132706  0.42130146  0.67735531     1.54400
O422        O  0.90927861  0.39771054  0.71339248    -0.80500
O423        O  0.86973918  0.45690691  0.59547694    -0.78800
O424        O  0.93724023  0.44579928  0.74209653    -0.83000
O425        O  0.87394464  0.49613592  0.73864930    -0.77900
O426        O  0.90045811  0.39315827  0.63355834    -0.79700
O427        O  0.88555028  0.52735098  0.62981292    -0.82400
C428        C  0.84632321  0.47495007  0.74275263     0.98300
C429        C  0.93209299  0.41105304  0.73699828     1.05800
O430        O  0.90284830  0.46491984  0.67113035    -1.11400
O431        O  0.96354097  0.51068753  0.63575007    -0.73800
O432        O  0.97631830  0.49241801  0.69266622    -0.77300
O433        O  0.84109717  0.44538145  0.72298572    -0.78000
C434        C  0.98540744  0.50916121  0.66332898     0.97300
O435        O  0.90887080  0.54238175  0.68605009    -0.76000
O436        O  0.94456603  0.43347442  0.61474251    -0.81200
C437        C  0.83701632  0.44935698  0.60611897     0.99900
C438        C  0.93099567  0.40069651  0.61635059     1.05800
O439        O  0.83077297  0.44126922  0.64014668    -0.76800
C440        C  0.88983272  0.54970574  0.65684742     1.04100
Fe441      Fe  0.01037993  0.29172800  0.42794121     1.65800
Fe442      Fe  0.03706997  0.38052830  0.42515487     1.73200
Fe443      Fe  0.08838244  0.31656589  0.38218169     1.54400
O444        O  0.10561776  0.28061210  0.42273271    -0.80500
O445        O  0.06224644  0.40195959  0.37687497    -0.78800
O446        O  0.05220079  0.25264227  0.43822134    -0.83000
O447        O  0.00317806  0.27446613  0.37465772    -0.77900
O448        O  0.12124993  0.35948007  0.40793294    -0.79700
O449        O  0.98893900  0.38173603  0.39717976    -0.82400
C450        C  0.02758505  0.25946739  0.35455922     0.98300
C451        C  0.08761938  0.25452514  0.43864689     1.05800
O452        O  0.04514186  0.32923691  0.41163585    -1.11400
O453        O  0.00954972  0.36799848  0.47492250    -0.73800
O454        O  0.01320801  0.30665159  0.48301724    -0.77300
O455        O  0.06144511  0.27056178  0.35494580    -0.78000
C456        C  0.00538288  0.33892884  0.49487885     0.97300
O457        O  0.96634265  0.32776422  0.41945222    -0.76000
O458        O  0.08461984  0.37872815  0.45389491    -0.81200
C459        C  0.06752369  0.38809907  0.34451301     0.99900
C460        C  0.11606458  0.37700519  0.43876935     1.05800
O461        O  0.07217986  0.35303971  0.34013867    -0.76800
C462        C  0.96254204  0.35979235  0.40440143     1.04100
Fe463      Fe  0.75325767  0.33014400  0.45710860     1.65800
Fe464      Fe  0.74180520  0.34077585  0.36596069     1.73200
Fe465      Fe  0.68478761  0.38657263  0.42419741     1.54400
O466        O  0.65963674  0.34915213  0.46052990    -0.80500
O467        O  0.71982578  0.38871677  0.34145332    -0.78800
O468        O  0.70609067  0.31726832  0.48660081    -0.83000
O469        O  0.75897111  0.37907160  0.48470347    -0.77900
O470        O  0.65563535  0.36003905  0.37986536    -0.79700
O471        O  0.78964863  0.36844876  0.37439685    -0.82400
C472        C  0.74020873  0.40845835  0.48881993     0.98300
C473        C  0.67191567  0.32518009  0.48354566     1.05800
O474        O  0.72654912  0.35308268  0.41637162    -1.11400
O475        O  0.76943526  0.29066868  0.37882484    -0.73800
O476        O  0.75064840  0.27698663  0.43533399    -0.77300
O477        O  0.71103479  0.41541884  0.46951640    -0.78000
C478        C  0.76778998  0.26818990  0.40608527     0.97300
O479        O  0.80264142  0.34293810  0.43015793    -0.76000
O480        O  0.69274015  0.31382828  0.35944588    -0.81200
C481        C  0.71153440  0.42133304  0.35270632     0.99900
C482        C  0.66169596  0.33050245  0.36031172     1.05800
O483        O  0.70504128  0.42727568  0.38714016    -0.76800
C484        C  0.81148366  0.36184494  0.40118979     1.04100
Fe485      Fe  0.84530590  0.04540941  0.26327051     1.65800
Fe486      Fe  0.84819265  0.13435388  0.29020633     1.73200
Fe487      Fe  0.89280075  0.07088058  0.34049124     1.54400
O488        O  0.85155328  0.03620700  0.35897353    -0.80500
O489        O  0.89801989  0.15513727  0.31272418    -0.78800
O490        O  0.83582511  0.00716822  0.30602456    -0.83000
O491        O  0.89809646  0.02714217  0.25514215    -0.77900
O492        O  0.87016004  0.11595103  0.37342712    -0.79700
O493        O  0.87315159  0.13645353  0.24030090    -0.82400
C494        C  0.91854755  0.01232608  0.27946318     0.98300
C495        C  0.83478393  0.01018693  0.34149163     1.05800
O496        O  0.86259432  0.08327275  0.29741326    -1.11400
O497        O  0.79743797  0.12190862  0.26499131    -0.73800
O498        O  0.79035273  0.06030466  0.26660000    -0.77300
O499        O  0.91839157  0.02367902  0.31346337    -0.78000
C500        C  0.77794556  0.09263303  0.25999341     0.97300
O501        O  0.85253642  0.08126180  0.21870093    -0.76000
O502        O  0.82165042  0.13199174  0.33951917    -0.81200
C503        C  0.93031226  0.14137547  0.31782203     0.99900
C504        C  0.83988552  0.13430667  0.36919859     1.05800
O505        O  0.93497376  0.10642019  0.32285939    -0.76800
C506        C  0.86530953  0.11424036  0.21418985     1.04100
Fe507      Fe  0.80521074  0.07009231  0.00894725     1.65800
Fe508      Fe  0.89614307  0.08198426  0.99795281     1.73200
Fe509      Fe  0.83895135  0.11773443  0.93396956     1.54400
O510        O  0.80092680  0.07915575  0.91461388    -0.80500
O511        O  0.92177417  0.12618636  0.97059602    -0.78800
O512        O  0.77654639  0.05013887  0.96372481    -0.83000
O513        O  0.77711402  0.11860116  0.00761645    -0.77900
O514        O  0.88126297  0.08398320  0.90792645    -0.79700
O515        O  0.88508690  0.11617156  0.04074445    -0.82400
C516        C  0.77474983  0.14665486  0.98657284     0.98300
C517        C  0.77885083  0.05540373  0.92890559     1.05800
O518        O  0.84614111  0.09023172  0.97984160    -1.11400
O519        O  0.88336645  0.03554660  0.03103269    -0.73800
O520        O  0.82782501  0.01780877  0.01276948    -0.77300
O521        O  0.79535960  0.15116293  0.95757115    -0.78000
C522        C  0.85770204  0.01131001  0.02950054     0.97300
O523        O  0.83083283  0.08977992  0.05711757    -0.76000
O524        O  0.90517673  0.04861077  0.95378083    -0.81200
C525        C  0.91054531  0.15689637  0.95744018     0.99900
C526        C  0.90082275  0.05598970  0.91943608     1.05800
O527        O  0.87677228  0.16049714  0.94784896    -0.76800
C528        C  0.85891696  0.11084331  0.06360545     1.04100
C529        C  0.83187277  0.13631266  0.12102852     0.24700
C530        C  0.86335636  0.12610172  0.10057289    -0.23400
C531        C  0.89809384  0.12266955  0.11813798     0.19600
C532        C  0.89994086  0.12324115  0.15667636     0.24700
C533        C  0.86736034  0.12802472  0.17697141    -0.23300
C534        C  0.83398476  0.13744687  0.15950298     0.19600
F535        F  0.80263692  0.14311418  0.17977843    -0.13300
F536        F  0.79851560  0.14115329  0.10410039    -0.15600
F537        F  0.93218988  0.11434326  0.17405734    -0.15600
F538        F  0.92896094  0.11318477  0.09858442    -0.13300
C539        C  0.82682112  0.23232378  0.39779377     0.24700
C540        C  0.78834708  0.23231398  0.40464855    -0.23400
C541        C  0.77019096  0.19797979  0.41026987     0.19600
C542        C  0.78930114  0.16422013  0.40492168     0.24700
C543        C  0.82707739  0.16416897  0.39458395    -0.23300
C544        C  0.84610965  0.19855720  0.39330838     0.19600
F545        F  0.88236220  0.19968166  0.38298831    -0.13300
F546        F  0.84548289  0.26515886  0.39399695    -0.15600
F547        F  0.76993546  0.13158608  0.40557092    -0.15600
F548        F  0.73324737  0.19709522  0.41764688    -0.13300
C549        C  0.98773325  0.22997873  0.30632399     0.24700
C550        C  0.01480462  0.22580704  0.33414801    -0.23400
C551        C  0.01749621  0.19105611  0.35240318     0.19600
C552        C  0.99169215  0.16229012  0.34523678     0.24700
C553        C  0.96250852  0.16780105  0.31973386    -0.23300
C554        C  0.96199615  0.20131589  0.29906564     0.19600
F555        F  0.93505778  0.20732534  0.27333470    -0.13300
F556        F  0.98377621  0.26338585  0.28890851    -0.15600
F557        F  0.99290550  0.13077805  0.36623736    -0.15600
F558        F  0.04203376  0.18674127  0.38079299    -0.13300
C559        C  0.90743842  0.36628823  0.36536225     0.24700
C560        C  0.92567646  0.37313583  0.39901105    -0.23400
C561        C  0.90648567  0.38546786  0.43053041     0.19600
C562        C  0.86819226  0.38583526  0.43002441     0.24700
C563        C  0.84946887  0.37408915  0.39784601    -0.23300
C564        C  0.86895313  0.36707570  0.36461490     0.19600
F565        F  0.85098226  0.35617618  0.33311057    -0.13300
F566        F  0.92657078  0.35485777  0.33478271    -0.15600
F567        F  0.84945430  0.39379482  0.46191105    -0.15600
F568        F  0.92469474  0.39289082  0.46289251    -0.13300
C569        C  0.74509540  0.42846357  0.55541174     0.24700
C570        C  0.75532607  0.43393001  0.51786420    -0.23400
C571        C  0.78990632  0.45051260  0.51053835     0.19600
C572        C  0.81530452  0.45753675  0.53934850     0.24700
C573        C  0.80684103  0.44834855  0.57685630    -0.23300
C574        C  0.77039172  0.43590671  0.58464666     0.19600
F575        F  0.75991262  0.42849437  0.62022242    -0.13300
F576        F  0.71195387  0.41225801  0.56354531    -0.15600
F577        F  0.84928374  0.47094507  0.52972616    -0.15600
F578        F  0.80094409  0.45571407  0.47469627    -0.13300
C579        C  0.98992536  0.37553716  0.59133262     0.24700
C580        C  0.95099323  0.37232186  0.59419004    -0.23400
C581        C  0.93185039  0.35001467  0.56818262     0.19600
C582        C  0.95073288  0.33544703  0.53718245     0.24700
C583        C  0.98869116  0.34328778  0.53198793    -0.23300
C584        C  0.00850529  0.36167368  0.56010963     0.19600
F585        F  0.04529064  0.36884741  0.55584498    -0.13300
F586        F  0.00938234  0.39573636  0.61685282    -0.15600
F587        F  0.93122091  0.31723637  0.51027613    -0.15600
F588        F  0.89439144  0.34626801  0.57018692    -0.13300
C589        C  0.85134435  0.64210416  0.68296334     0.24700
C590        C  0.86168817  0.66228284  0.65123685    -0.23400
C591        C  0.87269254  0.64405425  0.61862810     0.19600
C592        C  0.87880505  0.60589170  0.61945944     0.24700
C593        C  0.87401809  0.58646615  0.65309688    -0.23300
C594        C  0.85795728  0.60398545  0.68409471     0.19600
F595        F  0.85177315  0.58490661  0.71622824    -0.13300
F596        F  0.84020700  0.66010274  0.71440602    -0.15600
F597        F  0.89416255  0.58910580  0.58917398    -0.15600
F598        F  0.88287696  0.66394327  0.58803074    -0.13300
C599        C  0.04011646  0.82433597  0.72017096     0.24700
C600        C  0.01529694  0.84335000  0.69647068    -0.23400
C601        C  0.01575301  0.88274901  0.69662075     0.19600
C602        C  0.03880112  0.90248626  0.72106866     0.24700
C603        C  0.06224026  0.88345391  0.74615386    -0.23300
C604        C  0.06322358  0.84411130  0.74464643     0.19600
F605        F  0.08596693  0.82442540  0.76744154    -0.13300
F606        F  0.04122688  0.78640750  0.72092895    -0.15600
F607        F  0.03687102  0.94039932  0.72090893    -0.15600
F608        F  0.99310747  0.90257612  0.67382468    -0.13300
C609        C  0.93238801  0.99544116  0.90662949     0.24700
C610        C  0.92232577  0.03137868  0.89378412    -0.23400
C611        C  0.94018857  0.04546902  0.86184118     0.19600
C612        C  0.97095832  0.02651401  0.84667362     0.24700
C613        C  0.98442866  0.99379500  0.86381138    -0.23300
C614        C  0.96354364  0.97736288  0.89236172     0.19600
F615        F  0.97518365  0.94519964  0.90862059    -0.13300
F616        F  0.91434462  0.97941534  0.93582887    -0.15600
F617        F  0.99005563  0.04240344  0.81815087    -0.15600
F618        F  0.93055996  0.07927840  0.84783061    -0.13300
C619        C  0.95485073  0.25056490  0.92874610     0.24700
C620        C  0.99305088  0.24406684  0.93444206    -0.23400
C621        C  0.00334501  0.21043134  0.95168436     0.19600
C622        C  0.97657133  0.18296729  0.96048895     0.24700
C623        C  0.93838457  0.18832188  0.95238354    -0.23300
C624        C  0.92791868  0.22336002  0.93784054     0.19600
F625        F  0.89174152  0.23079938  0.93052449    -0.13300
F626        F  0.94376772  0.28246406  0.91166747    -0.15600
F627        F  0.98867857  0.15013845  0.97491523    -0.15600
F628        F  0.03981772  0.20239023  0.95650004    -0.13300
C629        C  0.97690509  0.35874283  0.73923061     0.24700
C630        C  0.95544401  0.38533596  0.75820488    -0.23400
C631        C  0.95964132  0.38987427  0.79679036     0.19600
C632        C  0.98485964  0.36785891  0.81635887     0.24700
C633        C  0.00670986  0.34123430  0.79743762    -0.23300
C634        C  0.00252742  0.33701518  0.75860987     0.19600
F635        F  0.02395033  0.31263805  0.73916962    -0.13300
F636        F  0.97435282  0.35512383  0.70160834    -0.15600
F637        F  0.98725760  0.37218239  0.85390789    -0.15600
F638        F  0.93898531  0.41541957  0.81556522    -0.13300
C639        C  0.13430762  0.09156515  0.90476423     0.24700
C640        C  0.10319887  0.07009162  0.89584277    -0.23400
C641        C  0.06765277  0.08571942  0.89644641     0.19600
C642        C  0.06381586  0.12407131  0.89856002     0.24700
C643        C  0.09589254  0.14644480  0.89891606    -0.23300
C644        C  0.13054832  0.13011040  0.90710026     0.19600
F645        F  0.16142381  0.15142084  0.91222531    -0.13300
F646        F  0.16854603  0.07593074  0.90639299    -0.15600
F647        F  0.02943014  0.13895737  0.89452335    -0.15600
F648        F  0.03707634  0.06418596  0.89073356    -0.13300
C649        C  0.22712641  0.39429589  0.79753635     0.24700
C650        C  0.23281169  0.37879206  0.76175557    -0.23400
C651        C  0.20628977  0.35395353  0.74736690     0.19600
C652        C  0.17611540  0.34271153  0.76929371     0.24700
C653        C  0.17254305  0.35498495  0.80654287    -0.23300
C654        C  0.19740144  0.38212169  0.81997080     0.19600
F655        F  0.19540115  0.39362391  0.85599507    -0.13300
F656        F  0.25270576  0.41799334  0.81236283    -0.15600
F657        F  0.15237522  0.31656462  0.75552155    -0.15600
F658        F  0.21091059  0.33870870  0.71297718    -0.13300
C659        C  0.20541573  0.32059622  0.01445761     0.24700
C660        C  0.24030536  0.30303185  0.01239484    -0.23400
C661        C  0.24426160  0.27259397  0.98798191     0.19600
C662        C  0.21540505  0.26261653  0.96333968     0.24700
C663        C  0.18205370  0.28353952  0.96198317    -0.23300
C664        C  0.17670866  0.31110393  0.98964574     0.19600
F665        F  0.14486442  0.33123250  0.99087576    -0.13300
F666        F  0.20077833  0.35052994  0.03734294    -0.15600
F667        F  0.22159585  0.23440672  0.93876429    -0.15600
F668        F  0.27755139  0.25520434  0.98501869    -0.13300
C669        C  0.33167934  0.33798483  0.88596926     0.24700
C670        C  0.36387830  0.34974274  0.90457799    -0.23400
C671        C  0.39685438  0.35631874  0.88462538     0.19600
C672        C  0.39583748  0.35706190  0.84591810     0.24700
C673        C  0.36219110  0.35044460  0.82773064    -0.23300
C674        C  0.33091044  0.33823855  0.84736244     0.19600
F675        F  0.29864452  0.33057792  0.82925478    -0.13300
F676        F  0.30014388  0.32987930  0.90513340    -0.15600
F677        F  0.42633738  0.36803839  0.82648473    -0.15600
F678        F  0.42849964  0.36689991  0.90236641    -0.13300
C679        C  0.79286360  0.54461176  0.79535068     0.24700
C680        C  0.81088701  0.54201324  0.83026535    -0.23400
C681        C  0.83068069  0.50911333  0.83811723     0.19600
C682        C  0.83611122  0.48188720  0.81023558     0.24700
C683        C  0.82204553  0.48691002  0.77386386    -0.23300
C684        C  0.79841599  0.51740139  0.76756445     0.19600
F685        F  0.78473682  0.52350354  0.73284716    -0.13300
F686        F  0.77173830  0.57484538  0.78710477    -0.15600
F687        F  0.85993494  0.45339749  0.81709759    -0.15600
F688        F  0.84826079  0.50511021  0.87132357    -0.13300
C689        C  0.90414764  0.66708263  0.81140563     0.24700
C690        C  0.89362273  0.68612529  0.84402173    -0.23400
C691        C  0.89635492  0.72557651  0.84446058     0.19600
C692        C  0.90348714  0.74554147  0.81152967     0.24700
C693        C  0.90931743  0.72634467  0.77798334    -0.23300
C694        C  0.91194995  0.68707381  0.77863595     0.19600
F695        F  0.91851156  0.66789954  0.74660284    -0.13300
F696        F  0.90128924  0.62925465  0.80966095    -0.15600
F697        F  0.90198271  0.78345408  0.81186691    -0.15600
F698        F  0.88666897  0.74482724  0.87563281    -0.13300
C699        C  0.46682522  0.51881333  0.79886952     0.24700
C700        C  0.45448037  0.55587387  0.79304487    -0.23400
C701        C  0.43508865  0.56342723  0.75967928     0.19600
C702        C  0.42527447  0.53421030  0.73497934     0.24700
C703        C  0.43472321  0.49687181  0.74289610    -0.23300
C704        C  0.45681671  0.48985875  0.77434543     0.19600
F705        F  0.46596122  0.45415472  0.78317737    -0.13300
F706        F  0.48685432  0.50986096  0.82962387    -0.15600
F707        F  0.40304758  0.54188681  0.70544116    -0.15600
F708        F  0.42284521  0.59848640  0.75237245    -0.13300
C709        C  0.36624060  0.53007871  0.98408017     0.24700
C710        C  0.36605333  0.49682278  0.96329927    -0.23400
C711        C  0.37137635  0.49828568  0.92454049     0.19600
C712        C  0.37987630  0.53225282  0.90717131     0.24700
C713        C  0.38414307  0.56493596  0.92857518    -0.23300
C714        C  0.37573825  0.56389761  0.96690029     0.19600
F715        F  0.38031900  0.59497438  0.98824958    -0.13300
F716        F  0.36041950  0.52927147  0.02147578    -0.15600
F717        F  0.38850368  0.53229875  0.87030510    -0.15600
F718        F  0.37005361  0.46648286  0.90381942    -0.13300
C719        C  0.61865187  0.59107725  0.89138650     0.24700
C720        C  0.59865973  0.61628373  0.86948525    -0.23400
C721        C  0.61657855  0.64054648  0.84476089     0.19600
C722        C  0.65488646  0.64314214  0.84565744     0.24700
C723        C  0.67437332  0.62200025  0.87184122    -0.23300
C724        C  0.65685714  0.59429226  0.89285904     0.19600
F725        F  0.67628296  0.57360847  0.91773655    -0.13300
F726        F  0.60103153  0.56771878  0.91547490    -0.15600
F727        F  0.67237166  0.66968718  0.82499080    -0.15600
F728        F  0.59684175  0.66466979  0.82339530    -0.13300
C729        C  0.33688123  0.88104526  0.35664850     0.24700
C730        C  0.34990248  0.89775660  0.32362682    -0.23400
C731        C  0.35488552  0.87578502  0.29156221     0.19600
C732        C  0.35818439  0.83753888  0.29574086     0.24700
C733        C  0.35522485  0.82200190  0.33135437    -0.23300
C734        C  0.34019865  0.84262145  0.36075268     0.19600
F735        F  0.33387848  0.82662691  0.39446821    -0.13300
F736        F  0.32742290  0.90220544  0.38665286    -0.15600
F737        F  0.36853967  0.81634718  0.26615908    -0.15600
F738        F  0.36371920  0.89123307  0.25813139    -0.13300
C739        C  0.92824069  0.94290547  0.27395542     0.24700
C740        C  0.94054263  0.97958922  0.26617301    -0.23400
C741        C  0.96484889  0.98469769  0.23597758     0.19600
C742        C  0.97421412  0.95482037  0.21234506     0.24700
C743        C  0.95907495  0.91864960  0.21775783    -0.23300
C744        C  0.93752683  0.91272498  0.25015469     0.19600
F745        F  0.92278268  0.87848425  0.25717840    -0.13300
F746        F  0.90399506  0.93693136  0.30232935    -0.15600
F747        F  0.99656484  0.96206282  0.18271724    -0.15600
F748        F  0.97700436  0.01960789  0.22735647    -0.13300
C749        C  0.91320808  0.70088271  0.05208971     0.24700
C750        C  0.90081266  0.73477075  0.06760437    -0.23400
C751        C  0.86482312  0.74731112  0.05892341     0.19600
C752        C  0.84235350  0.72708621  0.03412535     0.24700
C753        C  0.85548366  0.69398323  0.01738287    -0.23300
C754        C  0.89084831  0.68072611  0.02742039     0.19600
F755        F  0.90405071  0.64811277  0.01332551    -0.13300
F756        F  0.94727448  0.68719687  0.06056809    -0.15600
F757        F  0.80844661  0.74092597  0.02527464    -0.15600
F758        F  0.85204302  0.78019964  0.07277686    -0.13300
C759        C  0.87685265  0.90898902  0.04444788     0.24700
C760        C  0.88599705  0.90856863  0.08259121    -0.23400
C761        C  0.88008916  0.94089484  0.10410496     0.19600
C762        C  0.86892276  0.97413056  0.08697552     0.24700
C763        C  0.86275301  0.97518713  0.04833592    -0.23300
C764        C  0.86459231  0.94197631  0.02755823     0.19600
F765        F  0.85789268  0.94231568  0.99031227    -0.13300
F766        F  0.88327090  0.87841526  0.02292034    -0.15600
F767        F  0.86608780  0.00580790  0.10771502    -0.15600
F768        F  0.88967040  0.94155899  0.14072230    -0.13300
C769        C  0.07859041  0.84089068  0.99581162     0.24700
C770        C  0.03961160  0.83902904  0.99835837    -0.23400
C771        C  0.01864140  0.83867974  0.96546582     0.19600
C772        C  0.03598689  0.84392919  0.93086715     0.24700
C773        C  0.07466351  0.84989494  0.92853584    -0.23300
C774        C  0.09602660  0.84587458  0.96107433     0.19600
F775        F  0.13330851  0.85148275  0.95987237    -0.13300
F776        F  0.09967224  0.83954471  0.02714245    -0.15600
F777        F  0.01451382  0.84807459  0.90004813    -0.15600
F778        F  0.98106227  0.83644318  0.96712703    -0.13300
C779        C  0.20628567  0.94344830  0.97145381     0.24700
C780        C  0.20973148  0.92790079  0.93531007    -0.23400
C781        C  0.24232653  0.90763269  0.92723393     0.19600
C782        C  0.26851761  0.89995668  0.95547040     0.24700
C783        C  0.26303232  0.91252081  0.99237040    -0.23300
C784        C  0.23239008  0.93565652  0.99948512     0.19600
F785        F  0.22558906  0.94751811  0.03480749    -0.13300
F786        F  0.17633207  0.96450365  0.98055328    -0.15600
F787        F  0.29697050  0.87637872  0.94777313    -0.15600
F788        F  0.24730129  0.89221276  0.89299175    -0.13300
C789        C  0.34142168  0.99996118  0.19326940     0.24700
C790        C  0.32864238  0.99716409  0.23044289    -0.23400
C791        C  0.30689927  0.96591390  0.23997797     0.19600
C792        C  0.30142790  0.93652659  0.21421275     0.24700
C793        C  0.31764259  0.93764577  0.17819545    -0.23300
C794        C  0.33599865  0.97075652  0.16755277     0.19600
F795        F  0.35138143  0.97388960  0.13313184    -0.13300
F796        F  0.36238411  0.02977641  0.18275727    -0.15600
F797        F  0.28162429  0.90614931  0.22527722    -0.15600
F798        F  0.29420427  0.96191914  0.27538398    -0.13300
C799        C  0.39933833  0.79450952  0.98406760     0.24700
C800        C  0.36271843  0.78371167  0.99266578    -0.23400
C801        C  0.34766192  0.75175310  0.97529883     0.19600
C802        C  0.36892699  0.73066063  0.95055770     0.24700
C803        C  0.40578653  0.74109776  0.94232463    -0.23300
C804        C  0.42060630  0.77350285  0.95920244     0.19600
F805        F  0.45588839  0.78489798  0.95204853    -0.13300
F806        F  0.41477610  0.82549220  0.99968831    -0.15600
F807        F  0.35368332  0.69906794  0.93599345    -0.15600
F808        F  0.31275883  0.73978796  0.98336091    -0.13300
C809        C  0.41798900  0.80238908  0.18791399     0.24700
C810        C  0.39576605  0.78492800  0.16085265    -0.23400
C811        C  0.38923650  0.74600917  0.16389904     0.19600
C812        C  0.39693112  0.72727688  0.19718115     0.24700
C813        C  0.41440660  0.74625357  0.22644054    -0.23300
C814        C  0.42791807  0.78281922  0.22032000     0.19600
F815        F  0.44596727  0.80140458  0.24798939    -0.13300
F816        F  0.42503269  0.83963541  0.18586928    -0.15600
F817        F  0.38457197  0.69169937  0.20196250    -0.15600
F818        F  0.36925977  0.72788162  0.13725909    -0.13300
C819        C  0.15753215  0.87828170  0.11227794     0.24700
C820        C  0.17696208  0.85158456  0.13257968    -0.23400
C821        C  0.15918085  0.82816756  0.15827180     0.19600
C822        C  0.12083967  0.82833126  0.16018000     0.24700
C823        C  0.10118107  0.85253353  0.13702588    -0.23300
C824        C  0.11933873  0.87918498  0.11495889     0.19600
F825        F  0.09992679  0.90239954  0.09231228    -0.13300
F826        F  0.17521481  0.90062501  0.08731289    -0.15600
F827        F  0.10286962  0.80286742  0.18174053    -0.15600
F828        F  0.17858494  0.80236337  0.17794071    -0.13300
C829        C  0.54777856  0.78109951  0.76984888     0.24700
C830        C  0.54650728  0.81534703  0.78986411    -0.23400
C831        C  0.51913960  0.81880035  0.81787392     0.19600
C832        C  0.49667918  0.78814287  0.82796989     0.24700
C833        C  0.50062449  0.75310334  0.81043939    -0.23300
C834        C  0.52551800  0.75035500  0.78041142     0.19600
F835        F  0.53082416  0.71679656  0.76351812    -0.13300
F836        F  0.57278046  0.77602461  0.74198881    -0.15600
F837        F  0.47395583  0.79153106  0.85800269    -0.15600
F838        F  0.51587365  0.85099889  0.83768011    -0.13300
C839        C  0.74385155  0.00634537  0.84229055     0.24700
C840        C  0.71289680  0.98638221  0.85594580    -0.23400
C841        C  0.70361893  0.98958198  0.89394870     0.19600
C842        C  0.72468738  0.01228535  0.91764366     0.24700
C843        C  0.75556763  0.03228399  0.90384804    -0.23300
C844        C  0.76480448  0.02896797  0.86589186     0.19600
F845        F  0.79455588  0.04725078  0.85134229    -0.13300
F846        F  0.75377657  0.00473569  0.80579202    -0.15600
F847        F  0.71440332  0.01497585  0.95397832    -0.15600
F848        F  0.67414567  0.97077417  0.90841246    -0.13300
C849        C  0.68525721  0.80731950  0.89016143     0.24700
C850        C  0.69751813  0.82398698  0.85694275    -0.23400
C851        C  0.73248237  0.81414779  0.84237340     0.17200
C852        C  0.75286642  0.78534205  0.85820401     0.24700
C853        C  0.73881669  0.76585301  0.88893776    -0.23300
C854        C  0.70593032  0.77826321  0.90619598     0.19600
F855        F  0.69183423  0.75968535  0.93600887    -0.13300
F856        F  0.65169016  0.81633515  0.90473762    -0.15600
F857        F  0.78505737  0.77448261  0.84174696    -0.15600
F858        F  0.74562651  0.83051034  0.81086507    -0.13300
C859        C  0.80957629  0.89452295  0.66224385     0.24700
C860        C  0.83614897  0.88245637  0.68838131    -0.23400
C861        C  0.82715443  0.88426061  0.72662332     0.19600
C862        C  0.79090389  0.89172728  0.73801980     0.24700
C863        C  0.76325717  0.89904827  0.71164062    -0.23300
C864        C  0.77328498  0.90305190  0.67392740     0.19600
F865        F  0.74730424  0.91213673  0.64812559    -0.13300
F866        F  0.81741495  0.89415275  0.62521729    -0.15600
F867        F  0.78239188  0.89026537  0.77486337    -0.15600
F868        F  0.85261832  0.87481890  0.75285706    -0.13300
C869        C  0.79166312  0.82643913  0.50315599     0.24700
C870        C  0.75482102  0.81935422  0.51466134    -0.23400
C871        C  0.74936750  0.80294973  0.54980394     0.19600
C872        C  0.77935511  0.79550329  0.57359934     0.24700
C873        C  0.81624243  0.80481733  0.56346075    -0.23300
C874        C  0.82201014  0.81926291  0.52720705     0.19600
F875        F  0.85667204  0.82893118  0.51586463    -0.13300
F876        F  0.79810447  0.84361856  0.47004706    -0.15600
F877        F  0.77172047  0.78050206  0.60749843    -0.15600
F878        F  0.71436689  0.79623888  0.56222755    -0.13300
C879        C  0.53032743  0.81689073  0.46129189     0.24700
C880        C  0.56651881  0.80785542  0.44912153    -0.23400
C881        C  0.57199747  0.77259071  0.43230506     0.19600
C882        C  0.54176128  0.74849133  0.42527429     0.24700
C883        C  0.50532439  0.75898083  0.43477854    -0.23300
C884        C  0.50015952  0.79296842  0.45383172     0.19600
F885        F  0.46539679  0.80412494  0.46317578    -0.13300
F886        F  0.52373285  0.84976728  0.47905415    -0.15600
F887        F  0.54762927  0.71669863  0.40541825    -0.15600
F888        F  0.60606064  0.76272409  0.41955511    -0.13300
C889        C  0.78296059  0.96510585  0.42152465     0.24700
C890        C  0.76575570  0.93444114  0.40394070    -0.23400
C891        C  0.77301989  0.92754892  0.36602365     0.19600
C892        C  0.79642140  0.95134998  0.34590926     0.24700
C893        C  0.81267220  0.98285160  0.36323969    -0.23300
C894        C  0.80596664  0.98905295  0.40148074     0.19600
F895        F  0.82025631  0.01927459  0.41950513    -0.13300
F896        F  0.77580875  0.97349788  0.45777063    -0.15600
F897        F  0.80249364  0.94375821  0.30930218    -0.15600
F898        F  0.75711913  0.89804353  0.34818927    -0.13300
C899        C  0.55621742  0.89555974  0.35864996     0.24700
C900        C  0.58540740  0.92171337  0.36215463    -0.23400
C901        C  0.57840177  0.95938812  0.35306419     0.19600
C902        C  0.54233910  0.97139333  0.34537149     0.24700
C903        C  0.51271994  0.94591666  0.34572468    -0.23300
C904        C  0.52004863  0.90766310  0.35045129     0.19600
F905        F  0.49175853  0.88248717  0.35010049    -0.13300
F906        F  0.56170755  0.85906303  0.36726381    -0.15600
F907        F  0.53597823  0.00833034  0.33955950    -0.15600
F908        F  0.60598512  0.98528870  0.35526922    -0.13300
C909        C  0.60900116  0.95304809  0.59914727     0.24700
C910        C  0.60727810  0.91858458  0.58083493    -0.23400
C911        C  0.59611368  0.88634422  0.59962753     0.19600
C912        C  0.59353804  0.88731324  0.63820714     0.24700
C913        C  0.60363205  0.92027758  0.65731739    -0.23300
C914        C  0.60650034  0.95413163  0.63763272     0.19600
F915        F  0.61300079  0.98713095  0.65529088    -0.13300
F916        F  0.61756594  0.98474659  0.58018441    -0.15600
F917        F  0.58671080  0.85498486  0.65685485    -0.15600
F918        F  0.59291336  0.85319422  0.58134231    -0.13300
C919        C  0.49976450  0.25559453  0.04522756     0.24700
C920        C  0.49429030  0.22900247  0.07344806    -0.23400
C921        C  0.45823723  0.22510727  0.08841937     0.19600
C922        C  0.42935240  0.24941761  0.07797316     0.24700
C923        C  0.43587363  0.27861814  0.05243700    -0.23300
C924        C  0.47095962  0.27979800  0.03455623     0.19600
F925        F  0.47840612  0.30611895  0.00834343    -0.13300
F926        F  0.53426403  0.26104053  0.03095768    -0.15600
F927        F  0.39614079  0.24649951  0.09562255    -0.15600
F928        F  0.45218181  0.20066345  0.11671719    -0.13300
C929        C  0.72651302  0.20201422  0.05803902     0.24700
C930        C  0.68933825  0.19002336  0.05254530    -0.23400
C931        C  0.68046002  0.17366787  0.01781768     0.19600
C932        C  0.70859183  0.16548620  0.99160969     0.24700
C933        C  0.74617272  0.17362652  0.99926807    -0.23300
C934        C  0.75428703  0.19394245  0.03181489     0.19600
F935        F  0.79018778  0.20140534  0.04078696    -0.13300
F936        F  0.73700182  0.21916460  0.09019329    -0.15600
F937        F  0.69967677  0.14552871  0.96064026    -0.15600
F938        F  0.64510349  0.16288950  0.01026560    -0.13300
C939        C  0.49915633  0.07714030  0.24166910     0.24700
C940        C  0.46687583  0.09148226  0.25887383    -0.23400
C941        C  0.45718895  0.12896285  0.25254842     0.19600
C942        C  0.47849396  0.15117951  0.22878129     0.24700
C943        C  0.51016210  0.13647734  0.21087977    -0.23300
C944        C  0.52037868  0.09933969  0.21793280     0.19600
F945        F  0.55134372  0.08440910  0.20235513    -0.13300
F946        F  0.51024085  0.04131959  0.24714516    -0.15600
F947        F  0.46761846  0.18701422  0.22299146    -0.15600
F948        F  0.42695645  0.14431106  0.26913051    -0.13300
C949        C  0.73428856  0.08609418  0.20629844     0.24700
C950        C  0.74070500  0.09691721  0.24355054    -0.23400
C951        C  0.71386228  0.11796874  0.26227075     0.19600
C952        C  0.68257382  0.13077968  0.24324827     0.24700
C953        C  0.67821403  0.12385943  0.20470610    -0.23300
C954        C  0.70326149  0.09966222  0.18686837     0.19600
F955        F  0.70028430  0.09290843  0.14972764    -0.13300
F956        F  0.76016770  0.06592208  0.18756570    -0.15600
F957        F  0.65837925  0.15331471  0.26160080    -0.15600
F958        F  0.71936052  0.12844830  0.29826585    -0.13300
C959        C  0.63291229  0.33705453  0.29909091     0.24700
C960        C  0.63470645  0.31733897  0.33283966    -0.23400
C961        C  0.62292184  0.27985776  0.33400229     0.19600
C962        C  0.61270772  0.26136291  0.30112212     0.24700
C963        C  0.61537281  0.28000778  0.26682758    -0.23300
C964        C  0.62376939  0.31834384  0.26616497     0.19600
F965        F  0.62514486  0.33711233  0.23329787    -0.13300
F966        F  0.64488350  0.37306346  0.29720695    -0.15600
F967        F  0.60380322  0.22446815  0.30231675    -0.15600
F968        F  0.62501334  0.26028117  0.36632206    -0.13300
C969        C  0.67695655  0.50901759  0.30167841     0.24700
C970        C  0.68597540  0.50055720  0.26434255    -0.23400
C971        C  0.70859669  0.46936305  0.25754673     0.19600
C972        C  0.71952201  0.44562662  0.28670960     0.24700
C973        C  0.70732925  0.45174739  0.32377300    -0.23300
C974        C  0.68755406  0.48502220  0.33106926     0.19600
F975        F  0.67576298  0.49290972  0.36614370    -0.13300
F976        F  0.65437103  0.53835244  0.30929218    -0.15600
F977        F  0.74025705  0.41521638  0.27798626    -0.15600
F978        F  0.71729516  0.45983567  0.22193621    -0.13300
C979        C  0.76141389  0.57655383  0.05311821     0.24700
C980        C  0.75360252  0.56647239  0.01589204    -0.23400
C981        C  0.72089318  0.54606167  0.00897903     0.19600
C982        C  0.69503271  0.53911619  0.03752479     0.24700
C983        C  0.70096967  0.55246362  0.07425294    -0.23300
C984        C  0.73558065  0.56946436  0.08200063     0.19600
F985        F  0.74330585  0.58202893  0.11687315    -0.13300
F986        F  0.79230691  0.59694867  0.06088125    -0.15600
F987        F  0.66311138  0.52095524  0.02845273    -0.15600
F988        F  0.71229957  0.53576465  0.97357612    -0.13300
C989        C  0.52934407  0.58376974  0.28864807     0.24700
C990        C  0.55721076  0.60049979  0.26663335    -0.23400
C991        C  0.56442414  0.63900749  0.27158990     0.19600
C992        C  0.54341075  0.66035849  0.29675359     0.24700
C993        C  0.51456229  0.64383949  0.31767121    -0.23300
C994        C  0.50845220  0.60497793  0.31371901     0.19600
F995        F  0.48108180  0.58728253  0.33293410    -0.13300
F996        F  0.52090159  0.54689815  0.28499723    -0.15600
F997        F  0.55091432  0.69746270  0.29983117    -0.15600
F998        F  0.59162304  0.65630839  0.25183455    -0.13300
C999        C  0.57336010  0.63552244  0.01568823     0.24700
C1000       C  0.53468195  0.63859284  0.01172211    -0.23400
C1001       C  0.51235740  0.63923429  0.04374702     0.19600
C1002       C  0.52812499  0.63300452  0.07894677     0.24700
C1003       C  0.56657987  0.62661671  0.08270597    -0.23300
C1004       C  0.58925270  0.63004532  0.05095919     0.19600
F1005       F  0.62620478  0.62315098  0.05334573    -0.13300
F1006       F  0.59556544  0.63573987  0.98508907    -0.15600
F1007       F  0.50536514  0.62904991  0.10888879    -0.15600
F1008       F  0.47499323  0.64284813  0.04061939    -0.13300
C1009       C  0.58301936  0.35186073  0.11011608     0.24700
C1010       C  0.61602824  0.33358041  0.11945908    -0.23400
C1011       C  0.64904944  0.35385270  0.12491089     0.19600
C1012       C  0.64748870  0.39252631  0.12728924     0.24700
C1013       C  0.61319357  0.41011638  0.12360082    -0.23300
C1014       C  0.58157911  0.39034360  0.11245082     0.19600
F1015       F  0.54862368  0.40799882  0.10763100    -0.13300
F1016       F  0.55129453  0.33227818  0.10347325    -0.15600
F1017       F  0.67820303  0.41228010  0.13720582    -0.15600
F1018       F  0.68130417  0.33628024  0.13337998    -0.13300
C1019       C  0.47910231  0.43513572  0.15842787     0.24700
C1020       C  0.48283112  0.47345633  0.15020103    -0.23400
C1021       C  0.45512473  0.49124526  0.12952947     0.19600
C1022       C  0.42605995  0.47038910  0.11408178     0.24700
C1023       C  0.42465036  0.43126382  0.11855509    -0.23300
C1024       C  0.45017057  0.41405377  0.14255359     0.19600
F1025       F  0.44988506  0.37634557  0.14685048    -0.13300
F1026       F  0.50582086  0.41734036  0.17823730    -0.15600
F1027       F  0.40120767  0.48786294  0.09168328    -0.15600
F1028       F  0.45798429  0.52826188  0.12168284    -0.13300
C1029       C  0.51676811  0.28845810  0.66901252     0.24700
C1030       C  0.50889579  0.25150143  0.68033263    -0.23400
C1031       C  0.47647569  0.24528584  0.70123389     0.19600
C1032       C  0.45060345  0.27398844  0.70696555     0.24700
C1033       C  0.45607546  0.30997133  0.69154708    -0.23300
C1034       C  0.49072691  0.31745068  0.67463039     0.19600
F1035       F  0.49818193  0.35186309  0.66056747    -0.13300
F1036       F  0.54767231  0.29555758  0.64850264    -0.15600
F1037       F  0.41892514  0.26566228  0.72576379    -0.15600
F1038       F  0.46781799  0.21012504  0.71257820    -0.13300
C1039       C  0.58405646  0.07663172  0.73723661     0.24700
C1040       C  0.56698705  0.06631738  0.70344535    -0.23400
C1041       C  0.55047108  0.03030907  0.70131510     0.19600
C1042       C  0.55490155  0.00405290  0.73020762     0.24700
C1043       C  0.57581062  0.01308616  0.76199100    -0.23300
C1044       C  0.58826507  0.05042333  0.76608883     0.19600
F1045       F  0.60814389  0.06045030  0.79671914    -0.13300
F1046       F  0.59945511  0.11108672  0.74138498    -0.15600
F1047       F  0.54229720  0.96859397  0.72516316    -0.15600
F1048       F  0.53149247  0.01966537  0.67035515    -0.13300
C1049       C  0.63416473  0.27126017  0.56533661     0.24700
C1050       C  0.60199574  0.25499976  0.55005253    -0.23400
C1051       C  0.59064368  0.26546219  0.51400649     0.19600
C1052       C  0.61240768  0.29003382  0.49281803     0.24700
C1053       C  0.64571414  0.30448654  0.50745163    -0.23300
C1054       C  0.65583122  0.29569090  0.54421921     0.19600
F1055       F  0.68715167  0.31034266  0.55953065    -0.13300
F1056       F  0.64489280  0.26318540  0.60070101    -0.15600
F1057       F  0.60230233  0.29754734  0.45714714    -0.15600
F1058       F  0.55983984  0.25007405  0.49837200    -0.13300
C1059       C  0.63934696  0.08934540  0.50945938     0.24700
C1060       C  0.64617278  0.09046266  0.54829324    -0.23400
C1061       C  0.66970054  0.06340621  0.56364826     0.19600
C1062       C  0.68031477  0.03231465  0.54217187     0.24700
C1063       C  0.66661743  0.02764347  0.50556643    -0.23300
C1064       C  0.64822504  0.05747885  0.48860427     0.19600
F1065       F  0.63593297  0.05435511  0.45295230    -0.13300
F1066       F  0.61799814  0.11607050  0.49339330    -0.15600
F1067       F  0.69927294  0.00424566  0.55893105    -0.15600
F1068       F  0.67736219  0.06384832  0.60069543    -0.13300
C1069       C  0.50300583  0.09664591  0.45917675     0.24700
C1070       C  0.48721418  0.12421574  0.48185138    -0.23400
C1071       C  0.45339895  0.14071880  0.47111451     0.19600
C1072       C  0.43356029  0.12655412  0.44042687     0.24700
C1073       C  0.44769688  0.09611047  0.42023835    -0.23300
C1074       C  0.48367433  0.08310147  0.42830812     0.19600
F1075       F  0.49884149  0.05498669  0.40790741    -0.13300
F1076       F  0.53624131  0.08133467  0.46819757    -0.15600
F1077       F  0.39919542  0.13996749  0.43287697    -0.15600
F1078       F  0.43785885  0.16784728  0.49248846    -0.13300
C1079       C  0.24038805  0.05340358  0.45192775     0.24700
C1080       C  0.24864203  0.04092151  0.48829739    -0.23400
C1081       C  0.27906310  0.01696274  0.49276934     0.19600
C1082       C  0.30274574  0.00870824  0.46274714     0.24700
C1083       C  0.29707280  0.02467172  0.42702983    -0.23300
C1084       C  0.26432803  0.04553039  0.42168023     0.19600
F1085       F  0.25654528  0.06026400  0.38774614    -0.13300
F1086       F  0.21140829  0.07692050  0.44650745    -0.15600
F1087       F  0.33342915  0.98805299  0.47000876    -0.15600
F1088       F  0.28861341  0.00527859  0.52745556    -0.13300
C1089       C  0.18335673  0.99757245  0.68056250     0.24700
C1090       C  0.20673953  0.02887979  0.68565314    -0.23400
C1091       C  0.22303972  0.03408114  0.72120664     0.19600
C1092       C  0.21308035  0.01127947  0.75148250     0.24700
C1093       C  0.18726236  0.98211174  0.74707982    -0.23300
C1094       C  0.17371511  0.97452132  0.71096664     0.19600
F1095       F  0.14792456  0.94722179  0.70587789    -0.13300
F1096       F  0.16708699  0.99116472  0.64702244    -0.15600
F1097       F  0.22655233  0.01952017  0.78589276    -0.15600
F1098       F  0.24719754  0.06266917  0.72736754    -0.13300
C1099       C  0.14604867  0.21836819  0.44802896     0.24700
C1100       C  0.10908405  0.22552466  0.45843337    -0.23400
C1101       C  0.09382323  0.20612996  0.48889938     0.19600
C1102       C  0.11559707  0.18134143  0.50952792     0.24700
C1103       C  0.15312688  0.17526548  0.49996106    -0.23300
C1104       C  0.16773770  0.19356131  0.46841954     0.19600
F1105       F  0.20334623  0.18803118  0.45734411    -0.13300
F1106       F  0.16151535  0.23558016  0.41805828    -0.15600
F1107       F  0.10018987  0.16463682  0.53980280    -0.15600
F1108       F  0.05835915  0.21249376  0.49999246    -0.13300
C1109       C  0.13356664  0.20501499  0.67832027     0.24700
C1110       C  0.13883701  0.16611079  0.67600324    -0.23400
C1111       C  0.12935915  0.14364180  0.70672797     0.19600
C1112       C  0.11725343  0.16012798  0.74003813     0.24700
C1113       C  0.11479786  0.19920372  0.74306059    -0.23300
C1114       C  0.12160339  0.22142704  0.71162661     0.19600
F1115       F  0.11824660  0.25914677  0.71371213    -0.13300
F1116       F  0.14292661  0.22734463  0.64918901    -0.15600
F1117       F  0.11119107  0.13823760  0.77034616    -0.15600
F1118       F  0.13617586  0.10632455  0.70603966    -0.13300
C1119       C  0.36834898  0.12381474  0.64857949     0.24700
C1120       C  0.35067187  0.10275088  0.62075225    -0.23400
C1121       C  0.37046083  0.07758820  0.59860854     0.19600
C1122       C  0.40885073  0.07708120  0.60111556     0.24700
C1123       C  0.42664921  0.10289333  0.62454772    -0.23300
C1124       C  0.40666038  0.12431585  0.65008833     0.19600
F1125       F  0.42421011  0.14897924  0.67296964    -0.13300
F1126       F  0.34884016  0.14762074  0.67063449    -0.15600
F1127       F  0.42867477  0.05560423  0.57705865    -0.15600
F1128       F  0.35294077  0.05619202  0.57266217    -0.13300
C1129       C  0.27611315  0.27611523  0.58643459     0.24700
C1130       C  0.29325717  0.24305723  0.59856871    -0.23400
C1131       C  0.33008449  0.24479264  0.61134727     0.19600
C1132       C  0.34817331  0.27929122  0.61526614     0.24700
C1133       C  0.32907962  0.31280329  0.60840216    -0.23300
C1134       C  0.29364925  0.31082630  0.59199357     0.19600
F1135       F  0.27461536  0.34270972  0.58491518    -0.13300
F1136       F  0.24118131  0.27510597  0.57231959    -0.15600
F1137       F  0.38272559  0.28006645  0.63028856    -0.15600
F1138       F  0.34812404  0.21311494  0.62137247    -0.13300
C1139       C  0.06308940  0.47698119  0.28498453     0.24700
C1140       C  0.08465225  0.46692373  0.25393264    -0.23400
C1141       C  0.09601669  0.42930774  0.25063359     0.19600
C1142       C  0.08872589  0.40325212  0.27893004     0.24700
C1143       C  0.07002816  0.41405565  0.31168758    -0.23300
C1144       C  0.05586307  0.45090882  0.31354923     0.19600
F1145       F  0.03643873  0.46240574  0.34388876    -0.13300
F1146       F  0.05235017  0.51301991  0.28965097    -0.15600
F1147       F  0.10271105  0.36822523  0.27537432    -0.15600
F1148       F  0.11731494  0.41852298  0.22128151    -0.13300
C1149       C  0.06139452  0.69997128  0.23308590     0.24700
C1150       C  0.05630830  0.66305906  0.21941713    -0.23400
C1151       C  0.02342156  0.65565502  0.19922830     0.19600
C1152       C  0.99892797  0.68480927  0.18947918     0.24700
C1153       C  0.00623675  0.72218696  0.19987237    -0.23300
C1154       C  0.03699750  0.72900550  0.22304839     0.19600
F1155       F  0.04572481  0.76467980  0.23274757    -0.13300
F1156       F  0.09184492  0.70903521  0.25351440    -0.15600
F1157       F  0.97000866  0.67705621  0.16644397    -0.15600
F1158       F  0.01596534  0.62053642  0.18685648    -0.13300
C1159       C  0.22843009  0.45833577  0.09310986     0.24700
C1160       C  0.26063579  0.44021770  0.10598903    -0.23400
C1161       C  0.27244809  0.44688224  0.14278817     0.19600
C1162       C  0.25240286  0.47059704  0.16627166     0.24700
C1163       C  0.21976357  0.48832349  0.15367696    -0.23300
C1164       C  0.20830414  0.48209142  0.11659492     0.19600
F1165       F  0.17752331  0.49889219  0.10278788    -0.13300
F1166       F  0.21587190  0.45267187  0.05784538    -0.15600
F1167       F  0.26505722  0.47569100  0.20158190    -0.15600
F1168       F  0.30394463  0.43100323  0.15608713    -0.13300
C1169       C  0.19966465  0.71316311  0.10867870     0.24700
C1170       C  0.23831986  0.71492343  0.11364275    -0.23400
C1171       C  0.25716526  0.68408863  0.12819465     0.19600
C1172       C  0.23714032  0.65297808  0.14066366     0.24700
C1173       C  0.19811448  0.65257431  0.13888104    -0.23300
C1174       C  0.17957740  0.68218241  0.12145235     0.19600
F1175       F  0.14190911  0.68319788  0.12104177    -0.13300
F1176       F  0.18109417  0.74296654  0.09466303    -0.15600
F1177       F  0.25541612  0.62506534  0.15844163    -0.15600
F1178       F  0.29450078  0.68537913  0.13309568    -0.13300
C1179       C  0.31099634  0.59788615  0.35182296     0.24700
C1180       C  0.34243886  0.60194544  0.32892664    -0.23400
C1181       C  0.33944115  0.59301855  0.29070176     0.19600
C1182       C  0.30476499  0.58589648  0.27475556     0.24700
C1183       C  0.27287389  0.58591596  0.29704956    -0.23300
C1184       C  0.27637135  0.58976477  0.33590000     0.19600
F1185       F  0.24574092  0.58906319  0.35795498    -0.13300
F1186       F  0.31274182  0.60667779  0.38862975    -0.15600
F1187       F  0.30208602  0.58083631  0.23731640    -0.15600
F1188       F  0.36952846  0.59598326  0.26803152    -0.13300
C1189       C  0.29215446  0.66535684  0.50578863     0.24700
C1190       C  0.25579604  0.67530742  0.49541768    -0.23400
C1191       C  0.25100608  0.69531446  0.46201925     0.19600
C1192       C  0.28129442  0.70309473  0.43847488     0.24700
C1193       C  0.31733261  0.69040349  0.44722095    -0.23300
C1194       C  0.32256055  0.67280321  0.48203668     0.19600
F1195       F  0.35652212  0.65974508  0.49171556    -0.13300
F1196       F  0.29774923  0.64471170  0.53699152    -0.15600
F1197       F  0.27495527  0.72176723  0.40618883    -0.15600
F1198       F  0.21638453  0.70518687  0.45091524    -0.13300
C1199       C  0.07432518  0.72471469  0.58008970     0.24700
C1200       C  0.06873231  0.69072534  0.56070993    -0.23400
C1201       C  0.03322928  0.68414159  0.54522083     0.19600
C1202       C  0.00361570  0.70882493  0.55178521     0.24700
C1203       C  0.00841059  0.74122814  0.57358776    -0.23300
C1204       C  0.04449837  0.74953746  0.58655599     0.19600
F1205       F  0.05004597  0.77958494  0.60909593    -0.13300
F1206       F  0.10779110  0.73243361  0.59571695    -0.15600
F1207       F  0.96923329  0.69941290  0.53935355    -0.15600
F1208       F  0.02653221  0.65269436  0.52501521    -0.13300
C1209       C  0.28611202  0.52543006  0.65916105     0.24700
C1210       C  0.30611860  0.49701879  0.64059143    -0.23400
C1211       C  0.30364863  0.49531279  0.60131979     0.19600
C1212       C  0.28169692  0.52085526  0.58144580     0.24700
C1213       C  0.26141005  0.54890914  0.60017239    -0.23300
C1214       C  0.26418569  0.55081034  0.63933339     0.19600
F1215       F  0.24520154  0.57704749  0.65892155    -0.13300
F1216       F  0.28703452  0.52859768  0.69687724    -0.15600
F1217       F  0.27916395  0.51691009  0.54387200    -0.15600
F1218       F  0.32155125  0.46820037  0.58189762    -0.13300
C1219       C  0.08840964  0.52783516  0.65766229     0.24700
C1220       C  0.08873708  0.56528714  0.64552974    -0.23400
C1221       C  0.05552287  0.58573608  0.64656930     0.19600
C1222       C  0.02189212  0.56755422  0.65407652     0.24700
C1223       C  0.02121858  0.52905451  0.66171312    -0.23300
C1224       C  0.05481453  0.50986708  0.66600389     0.19600
F1225       F  0.05484788  0.47290097  0.67453540    -0.13300
F1226       F  0.12013131  0.50746806  0.65683853    -0.15600
F1227       F  0.98969633  0.58704250  0.65182078    -0.15600
F1228       F  0.05486911  0.62188351  0.63511333    -0.13300
C1229       C  0.10710692  0.61144303  0.36268028     0.24700
C1230       C  0.11383090  0.57546015  0.34788864    -0.23400
C1231       C  0.10628446  0.54378654  0.36975159     0.19600
C1232       C  0.10034687  0.54837794  0.40768460     0.24700
C1233       C  0.10347278  0.58412368  0.42331770    -0.23300
C1234       C  0.10296082  0.61576798  0.40083972     0.19600
F1235       F  0.10417065  0.65052253  0.41611511    -0.13300
F1236       F  0.10972134  0.64260858  0.34122679    -0.15600
F1237       F  0.09749087  0.51779082  0.42987578    -0.15600
F1238       F  0.10982683  0.50861955  0.35593085    -0.13300
C1239       C  0.15741235  0.43193798  0.43630786     0.24700
C1240       C  0.14409306  0.40116428  0.45656204    -0.23400
C1241       C  0.14307240  0.40350523  0.49588844     0.19600
C1242       C  0.14801277  0.43792742  0.51383424     0.24700
C1243       C  0.15648011  0.46974591  0.49291294    -0.23300
C1244       C  0.16384239  0.46604983  0.45450894     0.19600
F1245       F  0.17357892  0.49642600  0.43400589    -0.13300
F1246       F  0.15871678  0.43067536  0.39848203    -0.15600
F1247       F  0.14214871  0.44067108  0.55112408    -0.15600
F1248       F  0.13145694  0.37369601  0.51625044    -0.13300
loop_ 
_geom_bond_atom_site_label_1 
_geom_bond_atom_site_label_2 
_geom_bond_distance 
_geom_bond_site_symmetry_2 
_ccdc_geom_bond_type 
Fe1          O17   2.081       .  S
Fe1           O7   2.037       .  S
Fe1          O14   2.033       .  S
Fe1           O6   2.103       .  S
Fe1          O12   1.918       .  S
Fe2           O5   2.118       .  S
Fe2           O9   2.011       .  S
Fe2          O13   2.108       .  S
Fe2          O18   2.022       .  S
Fe2          O12   1.918       .  S
Fe3          O21   2.096       .  S
Fe3           O8   2.134       .  S
Fe3          O15   2.153       .  S
Fe3           O4   2.065       .  S
Fe3          O12   1.943       .  S
O4           C11   1.275       .  A
O5           C19   1.285       .  A
O6           C11   1.280       .  A
O7           C10   1.259       .  A
O8           C20   1.278       .  A
O9           C22   1.259       .  A
C10          O15   1.283       .  A
C10        C1190   1.494       .  S
C11        C1213   1.499       .  S
O13          C16   1.275       .  A
O14          C16   1.258       .  A
C16        C1243   1.470       .  S
O17          C22   1.279       .  A
O18          C20   1.255       .  A
C19          O21   1.283       .  A
C19        C1200   1.511       .  S
C20        C1220   1.470       .  S
C22        C1233   1.436       .  S
Fe23         O39   2.045       .  S
Fe23         O29   2.037       .  S
Fe23         O36   2.056       .  S
Fe23         O28   2.037       .  S
Fe23         O34   1.944       .  S
Fe24         O27   2.081       .  S
Fe24         O31   2.050       .  S
Fe24         O35   2.078       .  S
Fe24         O40   2.029       .  S
Fe24         O34   1.919       .  S
Fe25         O43   2.112       .  S
Fe25         O30   2.104       .  S
Fe25         O37   2.142       .  S
Fe25         O26   2.132       .  S
Fe25         O34   1.926       .  S
O26          C33   1.291       .  A
O27          C41   1.271       .  A
O28          C33   1.277       .  A
O29          C32   1.247       .  A
O30          C42   1.281       .  A
O31          C44   1.278       .  A
C32          O37   1.273       .  A
C32        C1140   1.491       .  S
C33        C1163   1.491       .  S
O35          C38   1.264       .  A
O36          C38   1.256       .  A
C38        C1183   1.469       .  S
O39          C44   1.277       .  A
O40          C42   1.268       .  A
C41          O43   1.278       .  A
C41        C1150   1.518       .  S
C42        C1173   1.464       .  S
C44        C1230   1.460       .  S
Fe45         O61   2.086       .  S
Fe45         O51   2.018       .  S
Fe45         O58   2.052       .  S
Fe45         O50   2.071       .  S
Fe45         O56   1.929       .  S
Fe46         O49   2.087       .  S
Fe46         O53   1.996       .  S
Fe46         O57   2.102       .  S
Fe46         O62   2.022       .  S
Fe46         O56   1.932       .  S
Fe47         O65   2.097       .  S
Fe47         O52   2.138       .  S
Fe47         O59   2.151       .  S
Fe47         O48   2.060       .  S
Fe47         O56   1.940       .  S
O48          C55   1.272       .  A
O49          C63   1.272       .  A
O50          C55   1.275       .  A
O51          C54   1.259       .  A
O52          C64   1.286       .  A
O53          C66   1.261       .  A
C54          O59   1.285       .  A
C54        C1080   1.488       .  S
C55        C1103   1.485       .  S
O57          C60   1.270       .  A
O58          C60   1.257       .  A
C60        C1130   1.481       .  S
O61          C66   1.281       .  A
O62          C64   1.266       .  A
C63          O65   1.277       .  A
C63        C1090   1.505       .  S
C64        C1110   1.472       .  S
C66        C1120   1.432       .  S
Fe67         O83   2.070       .  S
Fe67         O73   2.024       .  S
Fe67         O80   2.047       .  S
Fe67         O72   2.078       .  S
Fe67         O78   1.937       .  S
Fe68         O71   2.078       .  S
Fe68         O75   2.002       .  S
Fe68         O79   2.081       .  S
Fe68         O84   1.993       .  S
Fe68         O78   1.947       .  S
Fe69         O87   2.103       .  S
Fe69         O74   2.157       .  S
Fe69         O81   2.146       .  S
Fe69         O70   2.055       .  S
Fe69         O78   1.947       .  S
O70          C77   1.272       .  A
O71          C85   1.269       .  A
O72          C77   1.274       .  A
O73          C76   1.260       .  A
O74          C86   1.289       .  A
O75          C88   1.259       .  A
C76          O81   1.284       .  A
C76        C1030   1.490       .  S
C77        C1050   1.476       .  S
O79          C82   1.269       .  A
O80          C82   1.260       .  A
C82        C1070   1.472       .  S
O83          C88   1.277       .  A
O84          C86   1.260       .  A
C85          O87   1.275       .  A
C85        C1040   1.507       .  S
C86        C1060   1.481       .  S
C88        C1123   1.429       .  S
Fe89        O105   2.077       .  S
Fe89         O95   2.032       .  S
Fe89        O102   2.059       .  S
Fe89         O94   2.083       .  S
Fe89        O100   1.933       .  S
Fe90         O93   2.094       .  S
Fe90         O97   2.004       .  S
Fe90        O101   2.080       .  S
Fe90        O106   2.012       .  S
Fe90        O100   1.926       .  S
Fe91        O109   2.104       .  S
Fe91         O96   2.156       .  S
Fe91        O103   2.151       .  S
Fe91         O92   2.076       .  S
Fe91        O100   1.943       .  S
O92          C99   1.276       .  A
O93         C107   1.274       .  A
O94          C99   1.277       .  A
O95          C98   1.262       .  A
O96         C108   1.287       .  A
O97         C110   1.260       .  A
C98         O103   1.286       .  A
C98         C970   1.492       .  S
C99         C990   1.495       .  S
O101        C104   1.268       .  A
O102        C104   1.263       .  A
C104       C1020   1.472       .  S
O105        C110   1.278       .  A
O106        C108   1.258       .  A
C107        O109   1.278       .  A
C107        C983   1.513       .  S
C108       C1003   1.477       .  S
C110       C1013   1.427       .  S
Fe111       O127   2.064       .  S
Fe111       O117   2.018       .  S
Fe111       O124   2.044       .  S
Fe111       O116   2.036       .  S
Fe111       O122   1.932       .  S
Fe112       O115   2.067       .  S
Fe112       O119   2.011       .  S
Fe112       O123   2.086       .  S
Fe112       O128   2.014       .  S
Fe112       O122   1.938       .  S
Fe113       O131   2.111       .  S
Fe113       O118   2.153       .  S
Fe113       O125   2.151       .  S
Fe113       O114   2.072       .  S
Fe113       O122   1.933       .  S
O114        C121   1.273       .  A
O115        C129   1.265       .  A
O116        C121   1.264       .  A
O117        C120   1.261       .  A
O118        C130   1.293       .  A
O119        C132   1.265       .  A
C120        O125   1.288       .  A
C120        C920   1.487       .  S
C121        C943   1.477       .  S
O123        C126   1.266       .  A
O124        C126   1.254       .  A
C126        C963   1.466       .  S
O127        C132   1.278       .  A
O128        C130   1.269       .  A
C129        O131   1.275       .  A
C129        C930   1.511       .  S
C130        C953   1.483       .  S
C132       C1010   1.439       .  S
Fe133       O149   2.072       .  S
Fe133       O139   2.035       .  S
Fe133       O146   2.046       .  S
Fe133       O138   2.086       .  S
Fe133       O144   1.916       .  S
Fe134       O137   2.120       .  S
Fe134       O141   2.009       .  S
Fe134       O145   2.106       .  S
Fe134       O150   2.024       .  S
Fe134       O144   1.911       .  S
Fe135       O153   2.080       .  S
Fe135       O140   2.143       .  S
Fe135       O147   2.160       .  S
Fe135       O136   2.049       .  S
Fe135       O144   1.948       .  S
O136        C143   1.274       .  A
O137        C151   1.286       .  A
O138        C143   1.278       .  A
O139        C142   1.259       .  A
O140        C152   1.279       .  A
O141        C154   1.259       .  A
C142        O147   1.283       .  A
C142        C870   1.498       .  S
C143        C890   1.475       .  S
O145        C148   1.277       .  A
O146        C148   1.262       .  A
C148       C1063   1.480   1_565  S
O149        C154   1.276       .  A
O150        C152   1.255       .  A
C151        O153   1.282       .  A
C151        C880   1.503       .  S
C152        C900   1.484       .  S
C154        C910   1.433       .  S
Fe155       O171   2.034       .  S
Fe155       O161   2.040       .  S
Fe155       O168   2.064       .  S
Fe155       O160   2.027       .  S
Fe155       O166   1.946       .  S
Fe156       O159   2.078       .  S
Fe156       O163   2.062       .  S
Fe156       O167   2.078       .  S
Fe156       O172   2.036       .  S
Fe156       O166   1.919       .  S
Fe157       O175   2.100       .  S
Fe157       O162   2.104       .  S
Fe157       O169   2.147       .  S
Fe157       O158   2.116       .  S
Fe157       O166   1.930       .  S
O158        C165   1.286       .  A
O159        C173   1.270       .  A
O160        C165   1.273       .  A
O161        C164   1.248       .  A
O162        C174   1.283       .  A
O163        C176   1.281       .  A
C164        O169   1.277       .  A
C164       C1043   1.492   1_565  S
C165        C840   1.479       .  S
O167        C170   1.264       .  A
O168        C170   1.257       .  A
C170        C863   1.476       .  S
O171        C176   1.274       .  A
O172        C174   1.272       .  A
C173        O175   1.275       .  A
C173        C830   1.514       .  S
C174        C850   1.474       .  S
C176        C913   1.458       .  S
Fe177       O193   2.071       .  S
Fe177       O183   2.020       .  S
Fe177       O190   2.045       .  S
Fe177       O182   2.067       .  S
Fe177       O188   1.933       .  S
Fe178       O181   2.086       .  S
Fe178       O185   1.991       .  S
Fe178       O189   2.089       .  S
Fe178       O194   1.990       .  S
Fe178       O188   1.939       .  S
Fe179       O197   2.095       .  S
Fe179       O184   2.158       .  S
Fe179       O191   2.154       .  S
Fe179       O180   2.054       .  S
Fe179       O188   1.937       .  S
O180        C187   1.270       .  A
O181        C195   1.270       .  A
O182        C187   1.271       .  A
O183        C186   1.260       .  A
O184        C196   1.290       .  A
O185        C198   1.258       .  A
C186        O191   1.287       .  A
C186        C783   1.488   1_554  S
C187        C800   1.479   1_554  S
O189        C192   1.269       .  A
O190        C192   1.259       .  A
C192       C1170   1.465       .  S
O193        C198   1.276       .  A
O194        C196   1.261       .  A
C195        O197   1.274       .  A
C195        C793   1.507       .  S
C196        C810   1.480       .  S
C198        C820   1.421       .  S
Fe199       O215   2.074       .  S
Fe199       O205   2.026       .  S
Fe199       O212   2.052       .  S
Fe199       O204   2.059   1_455  S
Fe199       O210   1.937   1_455  S
Fe200       O203   2.087       .  S
Fe200       O207   1.997   1_655  S
Fe200       O211   2.107   1_655  S
Fe200       O216   2.022       .  S
Fe200       O210   1.941       .  S
Fe201       O219   2.105       .  S
Fe201       O206   2.140       .  S
Fe201       O213   2.155       .  S
Fe201       O202   2.075       .  S
Fe201       O210   1.944       .  S
O202        C209   1.273       .  A
O203        C217   1.271       .  A
O204        C209   1.272       .  A
O205        C208   1.260   1_455  A
O206        C218   1.288       .  A
O207        C220   1.262       .  A
C208        O213   1.287       .  A
C208       C1153   1.495   1_655  S
C209        C750   1.482       .  S
O211        C214   1.268       .  A
O212        C214   1.257       .  A
C214        C770   1.481   1_554  S
O215        C220   1.280       .  A
O216        C218   1.268       .  A
C217        O219   1.276       .  A
C217        C743   1.512       .  S
C218        C760   1.470       .  S
C220        C823   1.424       .  S
Fe221       O237   2.025       .  S
Fe221       O227   2.041   1_565  S
Fe221       O234   2.067       .  S
Fe221       O226   2.016   1_565  S
Fe221       O232   1.945   1_565  S
Fe222       O225   2.061       .  S
Fe222       O229   2.064       .  S
Fe222       O233   2.073       .  S
Fe222       O238   2.038   1_565  S
Fe222       O232   1.911   1_565  S
Fe223       O241   2.119       .  S
Fe223       O228   2.110       .  S
Fe223       O235   2.151       .  S
Fe223       O224   2.131       .  S
Fe223       O232   1.930       .  S
O224        C231   1.291       .  A
O225        C239   1.266   1_565  A
O226        C231   1.271       .  A
O227        C230   1.248       .  A
O228        C240   1.283       .  A
O229        C242   1.282       .  A
C230        O235   1.276       .  A
C230        C790   1.495   1_545  S
C231        C940   1.480       .  S
O233        C236   1.262       .  A
O234        C236   1.257       .  A
C236        C903   1.475       .  S
O237        C242   1.273       .  A
O238        C240   1.272       .  A
C239        O241   1.278       .  A
C239       C1083   1.513       .  S
C240       C1073   1.475       .  S
C242        C730   1.453       .  S
Fe243       O259   2.091       .  S
Fe243       O249   2.040       .  S
Fe243       O256   2.041       .  S
Fe243       O248   2.105       .  S
Fe243       O254   1.918       .  S
Fe244       O247   2.122       .  S
Fe244       O251   2.002       .  S
Fe244       O255   2.106       .  S
Fe244       O260   2.014       .  S
Fe244       O254   1.909       .  S
Fe245       O263   2.085       .  S
Fe245       O250   2.137       .  S
Fe245       O257   2.145       .  S
Fe245       O246   2.048       .  S
Fe245       O254   1.943       .  S
O246        C253   1.272       .  A
O247        C261   1.285       .  A
O248        C253   1.282       .  A
O249        C252   1.261       .  A
O250        C262   1.278       .  A
O251        C264   1.259       .  A
C252        O257   1.283       .  A
C252        C883   1.489       .  S
C253        C993   1.495       .  S
O255        C258   1.275       .  A
O256        C258   1.259       .  A
C258        C813   1.477       .  S
O259        C264   1.281       .  A
O260        C262   1.253       .  A
C261        O263   1.281       .  A
C261       C1193   1.507       .  S
C262       C1180   1.472       .  S
C264        C733   1.436       .  S
Fe265       O281   2.066       .  S
Fe265       O271   2.029       .  S
Fe265       O278   2.054       .  S
Fe265       O270   2.070       .  S
Fe265       O276   1.928       .  S
Fe266       O269   2.096       .  S
Fe266       O273   2.003       .  S
Fe266       O277   2.101       .  S
Fe266       O282   2.021       .  S
Fe266       O276   1.931       .  S
Fe267       O285   2.094       .  S
Fe267       O272   2.135       .  S
Fe267       O279   2.147       .  S
Fe267       O268   2.055       .  S
Fe267       O276   1.941       .  S
O268        C275   1.272       .  A
O269        C283   1.276       .  A
O270        C275   1.274       .  A
O271        C274   1.260       .  A
O272        C284   1.283       .  A
O273        C286   1.261       .  A
C274        O279   1.284       .  A
C274        C833   1.490       .  S
C275        C803   1.482       .  S
O277        C280   1.270       .  A
O278        C280   1.259       .  A
C280       C1000   1.478   1_556  S
O281        C286   1.277       .  A
O282        C284   1.262       .  A
C283        O285   1.278       .  A
C283        C700   1.509       .  S
C284        C713   1.468       .  S
C286        C720   1.427       .  S
Fe287       O303   2.076       .  S
Fe287       O293   2.025       .  S
Fe287       O300   2.052       .  S
Fe287       O292   2.083       .  S
Fe287       O298   1.936       .  S
Fe288       O291   2.082       .  S
Fe288       O295   1.995       .  S
Fe288       O299   2.065       .  S
Fe288       O304   2.000       .  S
Fe288       O298   1.936       .  S
Fe289       O307   2.095       .  S
Fe289       O294   2.167       .  S
Fe289       O301   2.153       .  S
Fe289       O290   2.057       .  S
Fe289       O298   1.939       .  S
O290        C297   1.274       .  A
O291        C305   1.270       .  A
O292        C297   1.276       .  A
O293        C296   1.260       .  A
O294        C306   1.291       .  A
O295        C308   1.259       .  A
C296        O301   1.286       .  A
C296        C980   1.493   1_556  S
C297        C753   1.485   1_556  S
O299        C302   1.266       .  A
O300        C302   1.260       .  A
C302        C853   1.469       .  S
O303        C308   1.279       .  A
O304        C306   1.258       .  A
C305        O307   1.274       .  A
C305        C680   1.501       .  S
C306        C690   1.479       .  S
C308        C723   1.426       .  S
Fe309       O325   2.077       .  S
Fe309       O315   2.019       .  S
Fe309       O322   2.045       .  S
Fe309       O314   2.057   1_556  S
Fe309       O320   1.942   1_556  S
Fe310       O313   2.074       .  S
Fe310       O317   2.018   1_554  S
Fe310       O321   2.091   1_554  S
Fe310       O326   2.026       .  S
Fe310       O320   1.948       .  S
Fe311       O329   2.104       .  S
Fe311       O316   2.134       .  S
Fe311       O323   2.141       .  S
Fe311       O312   2.072       .  S
Fe311       O320   1.948       .  S
O312        C319   1.272       .  A
O313        C327   1.267       .  A
O314        C319   1.268       .  A
O315        C318   1.261   1_556  A
O316        C328   1.288       .  A
O317        C330   1.266       .  A
C318        O323   1.285       .  A
C318        C660   1.484       .  S
C319       C1160   1.485       .  S
O321        C324   1.266       .  A
O322        C324   1.255       .  A
C324        C710   1.470       .  S
O325        C330   1.279       .  A
O326        C328   1.271       .  A
C327        O329   1.274       .  A
C327        C923   1.509       .  S
C328       C1023   1.477       .  S
C330        C670   1.448       .  S
Fe331       O347   2.074       .  S
Fe331       O337   2.032       .  S
Fe331       O344   2.055       .  S
Fe331       O336   2.092       .  S
Fe331       O342   1.929       .  S
Fe332       O335   2.098       .  S
Fe332       O339   2.013       .  S
Fe332       O343   2.090       .  S
Fe332       O348   2.024       .  S
Fe332       O342   1.928       .  S
Fe333       O351   2.102       .  S
Fe333       O338   2.144       .  S
Fe333       O345   2.141       .  S
Fe333       O334   2.083       .  S
Fe333       O342   1.956       .  S
O334        C341   1.280       .  A
O335        C349   1.278       .  A
O336        C341   1.280       .  A
O337        C340   1.259       .  A
O338        C350   1.281       .  A
O339        C352   1.261       .  A
C340        O345   1.281       .  A
C340        C703   1.488       .  S
C341       C1210   1.503       .  S
O343        C346   1.271       .  A
O344        C346   1.263       .  A
C346        C650   1.482       .  S
O347        C352   1.277       .  A
O348        C350   1.257       .  A
C349        O351   1.279       .  A
C349       C1033   1.511       .  S
C350       C1133   1.473       .  S
C352        C673   1.434       .  S
Fe353       O369   2.039       .  S
Fe353       O359   2.050       .  S
Fe353       O366   2.063       .  S
Fe353       O358   2.038       .  S
Fe353       O364   1.953       .  S
Fe354       O357   2.067       .  S
Fe354       O361   2.043       .  S
Fe354       O365   2.067       .  S
Fe354       O370   2.032       .  S
Fe354       O364   1.935       .  S
Fe355       O373   2.097       .  S
Fe355       O360   2.129       .  S
Fe355       O367   2.145       .  S
Fe355       O356   2.103       .  S
Fe355       O364   1.932       .  S
O356        C363   1.282       .  A
O357        C371   1.266       .  A
O358        C363   1.273       .  A
O359        C362   1.254       .  A
O360        C372   1.287       .  A
O361        C374   1.274       .  A
C362        O367   1.279       .  A
C362        C620   1.495   1_455  S
C363        C633   1.477       .  S
O365        C368   1.263       .  A
O366        C368   1.259       .  A
C368       C1113   1.471       .  S
O369        C374   1.274       .  A
O370        C372   1.269       .  A
C371        O373   1.273       .  A
C371        C663   1.509       .  S
C372        C653   1.481       .  S
C374        C643   1.458       .  S
Fe375       O391   2.067   1_565  S
Fe375       O381   2.041       .  S
Fe375       O388   2.065       .  S
Fe375       O380   2.078       .  S
Fe375       O386   1.932       .  S
Fe376       O379   2.100       .  S
Fe376       O383   2.014   1_565  S
Fe376       O387   2.085       .  S
Fe376       O392   2.006       .  S
Fe376       O386   1.917       .  S
Fe377       O395   2.095       .  S
Fe377       O382   2.153       .  S
Fe377       O389   2.146       .  S
Fe377       O378   2.068       .  S
Fe377       O386   1.945       .  S
O378        C385   1.275       .  A
O379        C393   1.277       .  A
O380        C385   1.275       .  A
O381        C384   1.264       .  A
O382        C394   1.284       .  A
O383        C396   1.259       .  A
C384        O389   1.284       .  A
C384       C1093   1.489       .  S
C385        C603   1.490       .  S
O387        C390   1.273       .  A
O388        C390   1.267       .  A
C390        C613   1.481   1_455  S
O391        C396   1.274       .  A
O392        C394   1.254       .  A
C393        O395   1.278       .  A
C393        C780   1.509       .  S
C394        C773   1.477       .  S
C396        C640   1.435       .  S
Fe397       O413   2.063       .  S
Fe397       O403   2.029       .  S
Fe397       O410   2.051       .  S
Fe397       O402   2.090       .  S
Fe397       O408   1.920       .  S
Fe398       O401   2.111       .  S
Fe398       O405   2.013       .  S
Fe398       O409   2.107       .  S
Fe398       O414   2.022       .  S
Fe398       O408   1.919       .  S
Fe399       O417   2.102       .  S
Fe399       O404   2.142       .  S
Fe399       O411   2.161       .  S
Fe399       O400   2.057       .  S
Fe399       O408   1.949       .  S
O400        C407   1.275       .  A
O401        C415   1.282       .  A
O402        C407   1.278       .  A
O403        C406   1.256       .  A
O404        C416   1.281       .  A
O405        C418   1.261       .  A
C406        O411   1.284       .  A
C406       C1203   1.496   1_655  S
C407        C600   1.490   1_655  S
O409        C412   1.274       .  A
O410        C412   1.262       .  A
C412        C693   1.481       .  S
O413        C418   1.275       .  A
O414        C416   1.258       .  A
C415        O417   1.284       .  A
C415        C873   1.516       .  S
C416        C860   1.483       .  S
C418        C590   1.429       .  S
Fe419       O435   2.081       .  S
Fe419       O425   2.005       .  S
Fe419       O432   2.047       .  S
Fe419       O424   2.054       .  S
Fe419       O430   1.936       .  S
Fe420       O423   2.076       .  S
Fe420       O427   2.001       .  S
Fe420       O431   2.092       .  S
Fe420       O436   2.017       .  S
Fe420       O430   1.933       .  S
Fe421       O439   2.107       .  S
Fe421       O426   2.141       .  S
Fe421       O433   2.146       .  S
Fe421       O422   2.066       .  S
Fe421       O430   1.940       .  S
O422        C429   1.271       .  A
O423        C437   1.268       .  A
O424        C429   1.269       .  A
O425        C428   1.257       .  A
O426        C438   1.289       .  A
O427        C440   1.265       .  A
C428        O433   1.285       .  A
C428        C683   1.481       .  S
C429        C630   1.464       .  S
O431        C434   1.266       .  A
O432        C434   1.255       .  A
C434       C1223   1.472   1_655  S
O435        C440   1.280       .  A
O436        C438   1.270       .  A
C437        O439   1.275       .  A
C437        C573   1.512       .  S
C438        C580   1.477       .  S
C440        C593   1.442       .  S
Fe441       O457   2.071   1_455  S
Fe441       O447   2.024       .  S
Fe441       O454   2.048       .  S
Fe441       O446   2.093       .  S
Fe441       O452   1.924       .  S
Fe442       O445   2.100       .  S
Fe442       O449   2.005   1_455  S
Fe442       O453   2.090       .  S
Fe442       O458   2.001       .  S
Fe442       O452   1.920       .  S
Fe443       O461   2.081       .  S
Fe443       O448   2.143       .  S
Fe443       O455   2.142       .  S
Fe443       O444   2.042       .  S
Fe443       O452   1.937       .  S
O444        C451   1.271       .  A
O445        C459   1.276       .  A
O446        C451   1.278       .  A
O447        C450   1.258       .  A
O448        C460   1.284       .  A
O449        C462   1.258       .  A
C450        O455   1.282       .  A
C450        C550   1.480       .  S
C451       C1100   1.479       .  S
O453        C456   1.272       .  A
O454        C456   1.262       .  A
C456        C583   1.469   1_455  S
O457        C462   1.275       .  A
O458        C460   1.258       .  A
C459        O461   1.275       .  A
C459       C1143   1.503       .  S
C460       C1240   1.472       .  S
C462        C560   1.427       .  S
Fe463       O479   2.075       .  S
Fe463       O469   2.019       .  S
Fe463       O476   2.056       .  S
Fe463       O468   2.053       .  S
Fe463       O474   1.936       .  S
Fe464       O467   2.088       .  S
Fe464       O471   2.007       .  S
Fe464       O475   2.106       .  S
Fe464       O480   2.024       .  S
Fe464       O474   1.940       .  S
Fe465       O483   2.102       .  S
Fe465       O470   2.126       .  S
Fe465       O477   2.142       .  S
Fe465       O466   2.076       .  S
Fe465       O474   1.947       .  S
O466        C473   1.272       .  A
O467        C481   1.270       .  A
O468        C473   1.269       .  A
O469        C472   1.260       .  A
O470        C482   1.286       .  A
O471        C484   1.265       .  A
C472        O477   1.285       .  A
C472        C570   1.485       .  S
C473       C1053   1.473       .  S
O475        C478   1.268       .  A
O476        C478   1.257       .  A
C478        C540   1.485       .  S
O479        C484   1.280       .  A
O480        C482   1.270       .  A
C481        O483   1.274       .  A
C481        C973   1.513       .  S
C482        C960   1.461       .  S
C484        C563   1.441       .  S
Fe485       O501   2.067       .  S
Fe485       O491   2.034       .  S
Fe485       O498   2.056       .  S
Fe485       O490   2.084       .  S
Fe485       O496   1.926       .  S
Fe486       O489   2.102       .  S
Fe486       O493   2.004       .  S
Fe486       O497   2.087       .  S
Fe486       O502   2.012       .  S
Fe486       O496   1.919       .  S
Fe487       O505   2.077       .  S
Fe487       O492   2.159       .  S
Fe487       O499   2.155       .  S
Fe487       O488   2.043       .  S
Fe487       O496   1.943       .  S
O488        C495   1.272       .  A
O489        C503   1.279       .  A
O490        C495   1.277       .  A
O491        C494   1.261       .  A
O492        C504   1.285       .  A
O493        C506   1.258       .  A
C494        O499   1.285       .  A
C494        C740   1.494   1_545  S
C495        C893   1.482   1_545  S
O497        C500   1.271       .  A
O498        C500   1.264       .  A
C500        C950   1.475       .  S
O501        C506   1.275       .  A
O502        C504   1.254       .  A
C503        O505   1.275       .  A
C503        C553   1.495       .  S
C504        C543   1.477       .  S
C506        C533   1.426       .  S
Fe507       O523   2.080       .  S
Fe507       O513   2.013       .  S
Fe507       O520   2.048       .  S
Fe507       O512   2.049   1_554  S
Fe507       O518   1.944   1_554  S
Fe508       O511   2.076       .  S
Fe508       O515   2.001   1_556  S
Fe508       O519   2.093   1_556  S
Fe508       O524   2.009       .  S
Fe508       O518   1.939       .  S
Fe509       O527   2.104       .  S
Fe509       O514   2.159       .  S
Fe509       O521   2.150       .  S
Fe509       O510   2.061       .  S
Fe509       O518   1.937       .  S
O510        C517   1.270       .  A
O511        C525   1.264       .  A
O512        C517   1.266       .  A
O513        C516   1.260   1_554  A
O514        C526   1.295       .  A
O515        C528   1.264       .  A
C516        O521   1.288       .  A
C516        C933   1.485       .  S
C517        C843   1.479       .  S
O519        C522   1.266       .  A
O520        C522   1.256       .  A
C522        C763   1.471   1_545  S
O523        C528   1.280       .  A
O524        C526   1.270       .  A
C525        O527   1.272       .  A
C525        C623   1.515       .  S
C526        C610   1.491       .  S
C528        C530   1.442       .  S
C529        C530   1.400       .  A
C529        C534   1.383       .  A
C529        F536   1.359       .  S
C530        C531   1.408       .  A
C531        C532   1.384       .  A
C531        F538   1.358       .  S
C532        C533   1.392       .  A
C532        F537   1.358       .  S
C533        C534   1.399       .  A
C534        F535   1.359       .  S
C539        C540   1.408       .  A
C539        C544   1.405       .  A
C539        F546   1.358       .  S
C540        C541   1.404       .  A
C541        C542   1.405       .  A
C541        F548   1.357       .  S
C542        C543   1.411       .  A
C542        F547   1.358       .  S
C543        C544   1.407       .  A
C544        F545   1.358       .  S
C549        C550   1.404   1_655  A
C549        C554   1.404       .  A
C549        F556   1.358       .  S
C550        C551   1.410       .  A
C551        C552   1.408   1_455  A
C551        F558   1.358       .  S
C552        C553   1.409       .  A
C552        F557   1.358       .  S
C553        C554   1.411       .  A
C554        F555   1.358       .  S
C559        C560   1.395       .  A
C559        C564   1.387       .  A
C559        F566   1.358       .  S
C560        C561   1.397       .  A
C561        C562   1.380       .  A
C561        F568   1.359       .  S
C562        C563   1.400       .  A
C562        F567   1.358       .  S
C563        C564   1.406       .  A
C564        F565   1.358       .  S
C569        C570   1.410       .  A
C569        C574   1.414       .  A
C569        F576   1.357       .  S
C570        C571   1.403       .  A
C571        C572   1.402       .  A
C571        F578   1.358       .  S
C572        C573   1.418       .  A
C572        F577   1.358       .  S
C573        C574   1.413       .  A
C574        F575   1.357       .  S
C579        C580   1.411       .  A
C579        C584   1.396   1_655  A
C579        F586   1.358   1_655  S
C580        C581   1.406       .  A
C581        C582   1.404       .  A
C581        F588   1.358       .  S
C582        C583   1.408       .  A
C582        F587   1.358       .  S
C583        C584   1.398   1_655  A
C584        F585   1.358       .  S
C589        C590   1.398       .  A
C589        C594   1.386       .  A
C589        F596   1.359       .  S
C590        C591   1.396       .  A
C591        C592   1.384       .  A
C591        F598   1.359       .  S
C592        C593   1.404       .  A
C592        F597   1.359       .  S
C593        C594   1.401       .  A
C594        F595   1.359       .  S
C599        C600   1.412       .  A
C599        C604   1.399       .  A
C599        F606   1.358       .  S
C600        C601   1.409       .  A
C601        C602   1.397       .  A
C601        F608   1.358   1_455  S
C602        C603   1.412       .  A
C602        F607   1.358       .  S
C603        C604   1.409       .  A
C604        F605   1.358       .  S
C609        C610   1.415   1_565  A
C609        C614   1.394       .  A
C609        F616   1.359       .  S
C610        C611   1.407       .  A
C611        C612   1.410       .  A
C611        F618   1.357       .  S
C612        C613   1.411   1_545  A
C612        F617   1.357       .  S
C613        C614   1.400       .  A
C614        F615   1.359       .  S
C619        C620   1.412       .  A
C619        C624   1.410       .  A
C619        F626   1.358       .  S
C620        C621   1.405   1_655  A
C621        C622   1.410   1_455  A
C621        F628   1.358       .  S
C622        C623   1.420       .  A
C622        F627   1.358       .  S
C623        C624   1.411       .  A
C624        F625   1.357       .  S
C629        C630   1.403       .  A
C629        C634   1.396   1_655  A
C629        F636   1.358       .  S
C630        C631   1.401       .  A
C631        C632   1.395       .  A
C631        F638   1.358       .  S
C632        C633   1.411   1_655  A
C632        F637   1.358       .  S
C633        C634   1.409       .  A
C634        F635   1.358       .  S
C639        C640   1.393       .  A
C639        C644   1.388       .  A
C639        F646   1.358       .  S
C640        C641   1.400       .  A
C641        C642   1.381       .  A
C641        F648   1.357       .  S
C642        C643   1.403       .  A
C642        F647   1.358       .  S
C643        C644   1.412       .  A
C644        F645   1.359       .  S
C649        C650   1.412       .  A
C649        C654   1.408       .  A
C649        F656   1.358       .  S
C650        C651   1.400       .  A
C651        C652   1.400       .  A
C651        F658   1.358       .  S
C652        C653   1.411       .  A
C652        F657   1.358       .  S
C653        C654   1.403       .  A
C654        F655   1.357       .  S
C659        C660   1.409       .  A
C659        C664   1.405   1_554  A
C659        F666   1.359       .  S
C660        C661   1.403   1_554  A
C661        C662   1.409       .  A
C661        F668   1.357       .  S
C662        C663   1.419       .  A
C662        F667   1.357       .  S
C663        C664   1.411       .  A
C664        F665   1.358       .  S
C669        C670   1.402       .  A
C669        C674   1.385       .  A
C669        F676   1.358       .  S
C670        C671   1.406       .  A
C671        C672   1.389       .  A
C671        F678   1.358       .  S
C672        C673   1.396       .  A
C672        F677   1.358       .  S
C673        C674   1.398       .  A
C674        F675   1.359       .  S
C679        C680   1.414       .  A
C679        C684   1.406       .  A
C679        F686   1.358       .  S
C680        C681   1.407       .  A
C681        C682   1.409       .  A
C681        F688   1.357       .  S
C682        C683   1.412       .  A
C682        F687   1.358       .  S
C683        C684   1.405       .  A
C684        F685   1.358       .  S
C689        C690   1.405       .  A
C689        C694   1.405       .  A
C689        F696   1.358       .  S
C690        C691   1.414       .  A
C691        C692   1.405       .  A
C691        F698   1.358       .  S
C692        C693   1.400       .  A
C692        F697   1.357       .  S
C693        C694   1.408       .  A
C694        F695   1.358       .  S
C699        C700   1.416       .  A
C699        C704   1.404       .  A
C699        F706   1.358       .  S
C700        C701   1.413       .  A
C701        C702   1.413       .  A
C701        F708   1.357       .  S
C702        C703   1.409       .  A
C702        F707   1.358       .  S
C703        C704   1.405       .  A
C704        F705   1.358       .  S
C709        C710   1.402       .  A
C709        C714   1.400       .  A
C709        F716   1.358   1_556  S
C710        C711   1.404       .  A
C711        C712   1.399       .  A
C711        F718   1.358       .  S
C712        C713   1.405       .  A
C712        F717   1.358       .  S
C713        C714   1.408       .  A
C714        F715   1.358       .  S
C719        C720   1.399       .  A
C719        C724   1.382       .  A
C719        F726   1.359       .  S
C720        C721   1.398       .  A
C721        C722   1.384       .  A
C721        F728   1.359       .  S
C722        C723   1.398       .  A
C722        F727   1.359       .  S
C723        C724   1.395       .  A
C724        F725   1.357       .  S
C729        C730   1.407       .  A
C729        C734   1.388       .  A
C729        F736   1.358       .  S
C730        C731   1.403       .  A
C731        C732   1.382       .  A
C731        F738   1.358       .  S
C732        C733   1.398       .  A
C732        F737   1.356       .  S
C733        C734   1.396       .  A
C734        F735   1.358       .  S
C739        C740   1.412       .  A
C739        C744   1.416       .  A
C739        F746   1.358       .  S
C740        C741   1.404       .  A
C741        C742   1.405       .  A
C741        F748   1.358   1_565  S
C742        C743   1.416       .  A
C742        F747   1.358       .  S
C743        C744   1.413       .  A
C744        F745   1.357       .  S
C749        C750   1.407       .  A
C749        C754   1.395       .  A
C749        F756   1.358       .  S
C750        C751   1.409       .  A
C751        C752   1.401       .  A
C751        F758   1.358       .  S
C752        C753   1.410       .  A
C752        F757   1.358       .  S
C753        C754   1.409       .  A
C754        F755   1.358       .  S
C759        C760   1.408       .  A
C759        C764   1.401       .  A
C759        F766   1.358       .  S
C760        C761   1.406       .  A
C761        C762   1.400       .  A
C761        F768   1.358       .  S
C762        C763   1.404       .  A
C762        F767   1.358   1_565  S
C763        C764   1.403       .  A
C764        F765   1.358   1_554  S
C769        C770   1.409       .  A
C769        C774   1.406       .  A
C769        F776   1.358   1_556  S
C770        C771   1.401       .  A
C771        C772   1.402       .  A
C771        F778   1.357   1_455  S
C772        C773   1.412       .  A
C772        F777   1.358       .  S
C773        C774   1.406       .  A
C774        F775   1.358       .  S
C779        C780   1.415       .  A
C779        C784   1.406       .  A
C779        F786   1.358       .  S
C780        C781   1.412       .  A
C781        C782   1.413       .  A
C781        F788   1.357       .  S
C782        C783   1.411       .  A
C782        F787   1.358       .  S
C783        C784   1.405       .  A
C784        F785   1.358   1_556  S
C789        C790   1.414       .  A
C789        C794   1.405       .  A
C789        F796   1.358   1_565  S
C790        C791   1.405       .  A
C791        C792   1.412       .  A
C791        F798   1.357       .  S
C792        C793   1.418       .  A
C792        F797   1.358       .  S
C793        C794   1.408       .  A
C794        F795   1.358       .  S
C799        C800   1.408       .  A
C799        C804   1.396       .  A
C799        F806   1.358       .  S
C800        C801   1.408       .  A
C801        C802   1.395       .  A
C801        F808   1.358       .  S
C802        C803   1.410       .  A
C802        F807   1.358       .  S
C803        C804   1.410       .  A
C804        F805   1.358       .  S
C809        C810   1.403       .  A
C809        C814   1.405       .  A
C809        F816   1.357       .  S
C810        C811   1.415       .  A
C811        C812   1.399       .  A
C811        F818   1.359       .  S
C812        C813   1.398       .  A
C812        F817   1.358       .  S
C813        C814   1.411       .  A
C814        F815   1.358       .  S
C819        C820   1.393       .  A
C819        C824   1.380       .  A
C819        F826   1.358       .  S
C820        C821   1.400       .  A
C821        C822   1.383       .  A
C821        F828   1.359       .  S
C822        C823   1.396       .  A
C822        F827   1.358       .  S
C823        C824   1.400       .  A
C824        F825   1.359       .  S
C829        C830   1.419       .  A
C829        C834   1.411       .  A
C829        F836   1.357       .  S
C830        C831   1.413       .  A
C831        C832   1.408       .  A
C831        F838   1.357       .  S
C832        C833   1.409       .  A
C832        F837   1.358       .  S
C833        C834   1.405       .  A
C834        F835   1.358       .  S
C839        C840   1.410   1_545  A
C839        C844   1.391       .  A
C839        F846   1.358       .  S
C840        C841   1.408       .  A
C841        C842   1.397   1_565  A
C841        F848   1.358       .  S
C842        C843   1.411       .  A
C842        F847   1.358       .  S
C843        C844   1.406       .  A
C844        F845   1.358       .  S
C849        C850   1.404       .  A
C849        C854   1.405       .  A
C849        F856   1.357       .  S
C850        C851   1.409       .  A
C851        C852   1.390       .  A
C851        F858   1.358       .  S
C852        C853   1.399       .  A
C852        F857   1.359       .  S
C853        C854   1.410       .  A
C854        F855   1.358       .  S
C859        C860   1.410       .  A
C859        C864   1.407       .  A
C859        F866   1.358       .  S
C860        C861   1.411       .  A
C861        C862   1.395       .  A
C861        F868   1.359       .  S
C862        C863   1.400       .  A
C862        F867   1.358       .  S
C863        C864   1.407       .  A
C864        F865   1.358       .  S
C869        C870   1.412       .  A
C869        C874   1.418       .  A
C869        F876   1.358       .  S
C870        C871   1.405       .  A
C871        C872   1.404       .  A
C871        F878   1.358       .  S
C872        C873   1.417       .  A
C872        F877   1.358       .  S
C873        C874   1.415       .  A
C874        F875   1.357       .  S
C879        C880   1.413       .  A
C879        C884   1.406       .  A
C879        F886   1.358       .  S
C880        C881   1.412       .  A
C881        C882   1.409       .  A
C881        F888   1.357       .  S
C882        C883   1.408       .  A
C882        F887   1.358       .  S
C883        C884   1.406       .  A
C884        F885   1.358       .  S
C889        C890   1.406       .  A
C889        C894   1.391       .  A
C889        F896   1.358       .  S
C890        C891   1.406       .  A
C891        C892   1.397       .  A
C891        F898   1.358       .  S
C892        C893   1.411       .  A
C892        F897   1.358       .  S
C893        C894   1.410       .  A
C894        F895   1.358   1_565  S
C899        C900   1.410       .  A
C899        C904   1.406       .  A
C899        F906   1.357       .  S
C900        C901   1.411       .  A
C901        C902   1.398       .  A
C901        F908   1.358       .  S
C902        C903   1.401       .  A
C902        F907   1.358   1_565  S
C903        C904   1.405       .  A
C904        F905   1.358       .  S
C909        C910   1.397       .  A
C909        C914   1.384       .  A
C909        F916   1.358       .  S
C910        C911   1.395       .  A
C911        C912   1.387       .  A
C911        F918   1.358       .  S
C912        C913   1.409       .  A
C912        F917   1.359       .  S
C913        C914   1.406       .  A
C914        F915   1.358       .  S
C919        C920   1.404       .  A
C919        C924   1.408       .  A
C919        F926   1.358       .  S
C920        C921   1.412       .  A
C921        C922   1.410       .  A
C921        F928   1.358       .  S
C922        C923   1.410       .  A
C922        F927   1.357       .  S
C923        C924   1.418       .  A
C924        F925   1.358       .  S
C929        C930   1.419       .  A
C929        C934   1.404       .  A
C929        F936   1.358       .  S
C930        C931   1.411       .  A
C931        C932   1.413   1_554  A
C931        F938   1.357       .  S
C932        C933   1.411       .  A
C932        F937   1.357       .  S
C933        C934   1.404   1_556  A
C934        F935   1.359       .  S
C939        C940   1.414       .  A
C939        C944   1.392       .  A
C939        F946   1.358       .  S
C940        C941   1.406       .  A
C941        C942   1.395       .  A
C941        F948   1.358       .  S
C942        C943   1.412       .  A
C942        F947   1.358       .  S
C943        C944   1.403       .  A
C944        F945   1.358       .  S
C949        C950   1.409       .  A
C949        C954   1.406       .  A
C949        F956   1.358       .  S
C950        C951   1.399       .  A
C951        C952   1.397       .  A
C951        F958   1.358       .  S
C952        C953   1.413       .  A
C952        F957   1.359       .  S
C953        C954   1.406       .  A
C954        F955   1.358       .  S
C959        C960   1.404       .  A
C959        C964   1.395       .  A
C959        F966   1.359       .  S
C960        C961   1.405       .  A
C961        C962   1.400       .  A
C961        F968   1.358       .  S
C962        C963   1.404       .  A
C962        F967   1.358       .  S
C963        C964   1.403       .  A
C964        F965   1.359       .  S
C969        C970   1.410       .  A
C969        C974   1.414       .  A
C969        F976   1.358       .  S
C970        C971   1.405       .  A
C971        C972   1.406       .  A
C971        F978   1.358       .  S
C972        C973   1.417       .  A
C972        F977   1.358       .  S
C973        C974   1.413       .  A
C974        F975   1.357       .  S
C979        C980   1.411       .  A
C979        C984   1.415       .  A
C979        F986   1.357       .  S
C980        C981   1.406       .  A
C981        C982   1.406       .  A
C981        F988   1.357   1_554  S
C982        C983   1.416       .  A
C982        F987   1.358       .  S
C983        C984   1.413       .  A
C984        F985   1.357       .  S
C989        C990   1.409       .  A
C989        C994   1.397       .  A
C989        F996   1.358       .  S
C990        C991   1.412       .  A
C991        C992   1.404       .  A
C991        F998   1.357       .  S
C992        C993   1.410       .  A
C992        F997   1.358       .  S
C993        C994   1.413       .  A
C994        F995   1.358       .  S
C999       C1000   1.406       .  A
C999       C1004   1.403       .  A
C999       F1006   1.358   1_554  S
C1000      C1001   1.402       .  A
C1001      C1002   1.403       .  A
C1001      F1008   1.358       .  S
C1002      C1003   1.412       .  A
C1002      F1007   1.358       .  S
C1003      C1004   1.406       .  A
C1004      F1005   1.358       .  S
C1009      C1010   1.401       .  A
C1009      C1014   1.380       .  A
C1009      F1016   1.359       .  S
C1010      C1011   1.405       .  A
C1011      C1012   1.387       .  A
C1011      F1018   1.358       .  S
C1012      C1013   1.395       .  A
C1012      F1017   1.358       .  S
C1013      C1014   1.397       .  A
C1014      F1015   1.358       .  S
C1019      C1020   1.409       .  A
C1019      C1024   1.404       .  A
C1019      F1026   1.358       .  S
C1020      C1021   1.400       .  A
C1021      C1022   1.398       .  A
C1021      F1028   1.358       .  S
C1022      C1023   1.410       .  A
C1022      F1027   1.358       .  S
C1023      C1024   1.405       .  A
C1024      F1025   1.358       .  S
C1029      C1030   1.411       .  A
C1029      C1034   1.415       .  A
C1029      F1036   1.358       .  S
C1030      C1031   1.405       .  A
C1031      C1032   1.404       .  A
C1031      F1038   1.358       .  S
C1032      C1033   1.415       .  A
C1032      F1037   1.358       .  S
C1033      C1034   1.413       .  A
C1034      F1035   1.357       .  S
C1039      C1040   1.407       .  A
C1039      C1044   1.406       .  A
C1039      F1046   1.358       .  S
C1040      C1041   1.419       .  A
C1041      C1042   1.410       .  A
C1041      F1048   1.357       .  S
C1042      C1043   1.403       .  A
C1042      F1047   1.357   1_545  S
C1043      C1044   1.415       .  A
C1044      F1045   1.359       .  S
C1049      C1050   1.406       .  A
C1049      C1054   1.394       .  A
C1049      F1056   1.358       .  S
C1050      C1051   1.408       .  A
C1051      C1052   1.401       .  A
C1051      F1058   1.358       .  S
C1052      C1053   1.406       .  A
C1052      F1057   1.358       .  S
C1053      C1054   1.405       .  A
C1054      F1055   1.358       .  S
C1059      C1060   1.415       .  A
C1059      C1064   1.400       .  A
C1059      F1066   1.359       .  S
C1060      C1061   1.403       .  A
C1061      C1062   1.406       .  A
C1061      F1068   1.357       .  S
C1062      C1063   1.412       .  A
C1062      F1067   1.358       .  S
C1063      C1064   1.399       .  A
C1064      F1065   1.358       .  S
C1069      C1070   1.399       .  A
C1069      C1074   1.393       .  A
C1069      F1076   1.358       .  S
C1070      C1071   1.410       .  A
C1071      C1072   1.405       .  A
C1071      F1078   1.358       .  S
C1072      C1073   1.404       .  A
C1072      F1077   1.357       .  S
C1073      C1074   1.409       .  A
C1074      F1075   1.359       .  S
C1079      C1080   1.412       .  A
C1079      C1084   1.414       .  A
C1079      F1086   1.358       .  S
C1080      C1081   1.403       .  A
C1081      C1082   1.405       .  A
C1081      F1088   1.358       .  S
C1082      C1083   1.419       .  A
C1082      F1087   1.358   1_545  S
C1083      C1084   1.412       .  A
C1084      F1085   1.357       .  S
C1089      C1090   1.410   1_565  A
C1089      C1094   1.411       .  A
C1089      F1096   1.357       .  S
C1090      C1091   1.416       .  A
C1091      C1092   1.405       .  A
C1091      F1098   1.358       .  S
C1092      C1093   1.404   1_545  A
C1092      F1097   1.358       .  S
C1093      C1094   1.410       .  A
C1094      F1095   1.358       .  S
C1099      C1100   1.407       .  A
C1099      C1104   1.393       .  A
C1099      F1106   1.358       .  S
C1100      C1101   1.406       .  A
C1101      C1102   1.399       .  A
C1101      F1108   1.358       .  S
C1102      C1103   1.413       .  A
C1102      F1107   1.358       .  S
C1103      C1104   1.409       .  A
C1104      F1105   1.358       .  S
C1109      C1110   1.407       .  A
C1109      C1114   1.399       .  A
C1109      F1116   1.358       .  S
C1110      C1111   1.407       .  A
C1111      C1112   1.401       .  A
C1111      F1118   1.358       .  S
C1112      C1113   1.405       .  A
C1112      F1117   1.358       .  S
C1113      C1114   1.402       .  A
C1114      F1115   1.357       .  S
C1119      C1120   1.401       .  A
C1119      C1124   1.382       .  A
C1119      F1126   1.359       .  S
C1120      C1121   1.397       .  A
C1121      C1122   1.387       .  A
C1121      F1128   1.358       .  S
C1122      C1123   1.401       .  A
C1122      F1127   1.359       .  S
C1123      C1124   1.395       .  A
C1124      F1125   1.358       .  S
C1129      C1130   1.406       .  A
C1129      C1134   1.405       .  A
C1129      F1136   1.357       .  S
C1130      C1131   1.405       .  A
C1131      C1132   1.400       .  A
C1131      F1138   1.358       .  S
C1132      C1133   1.407       .  A
C1132      F1137   1.357       .  S
C1133      C1134   1.408       .  A
C1134      F1135   1.358       .  S
C1139      C1140   1.405       .  A
C1139      C1144   1.410       .  A
C1139      F1146   1.357       .  S
C1140      C1141   1.413       .  A
C1141      C1142   1.403       .  A
C1141      F1148   1.359       .  S
C1142      C1143   1.408       .  A
C1142      F1147   1.358       .  S
C1143      C1144   1.417       .  A
C1144      F1145   1.358       .  S
C1149      C1150   1.419       .  A
C1149      C1154   1.411       .  A
C1149      F1156   1.358       .  S
C1150      C1151   1.413       .  A
C1151      C1152   1.413   1_455  A
C1151      F1158   1.357       .  S
C1152      C1153   1.411   1_655  A
C1152      F1157   1.358       .  S
C1153      C1154   1.406       .  A
C1154      F1155   1.358       .  S
C1159      C1160   1.410       .  A
C1159      C1164   1.400       .  A
C1159      F1166   1.358       .  S
C1160      C1161   1.407       .  A
C1161      C1162   1.397       .  A
C1161      F1168   1.358       .  S
C1162      C1163   1.413       .  A
C1162      F1167   1.358       .  S
C1163      C1164   1.410       .  A
C1164      F1165   1.358       .  S
C1169      C1170   1.406       .  A
C1169      C1174   1.399       .  A
C1169      F1176   1.358       .  S
C1170      C1171   1.399       .  A
C1171      C1172   1.398       .  A
C1171      F1178   1.357       .  S
C1172      C1173   1.408       .  A
C1172      F1177   1.358       .  S
C1173      C1174   1.403       .  A
C1174      F1175   1.358       .  S
C1179      C1180   1.406       .  A
C1179      C1184   1.402       .  A
C1179      F1186   1.358       .  S
C1180      C1181   1.411       .  A
C1181      C1182   1.397       .  A
C1181      F1188   1.359       .  S
C1182      C1183   1.400       .  A
C1182      F1187   1.358       .  S
C1183      C1184   1.406       .  A
C1184      F1185   1.358       .  S
C1189      C1190   1.409       .  A
C1189      C1194   1.412       .  A
C1189      F1196   1.358       .  S
C1190      C1191   1.408       .  A
C1191      C1192   1.407       .  A
C1191      F1198   1.358       .  S
C1192      C1193   1.413       .  A
C1192      F1197   1.358       .  S
C1193      C1194   1.413       .  A
C1194      F1195   1.357       .  S
C1199      C1200   1.413       .  A
C1199      C1204   1.415       .  A
C1199      F1206   1.357       .  S
C1200      C1201   1.414       .  A
C1201      C1202   1.407       .  A
C1201      F1208   1.358       .  S
C1202      C1203   1.407       .  A
C1202      F1207   1.358   1_455  S
C1203      C1204   1.412       .  A
C1204      F1205   1.358       .  S
C1209      C1210   1.414       .  A
C1209      C1214   1.401       .  A
C1209      F1216   1.358       .  S
C1210      C1211   1.413       .  A
C1211      C1212   1.406       .  A
C1211      F1218   1.358       .  S
C1212      C1213   1.412       .  A
C1212      F1217   1.358       .  S
C1213      C1214   1.410       .  A
C1214      F1215   1.358       .  S
C1219      C1220   1.409       .  A
C1219      C1224   1.401       .  A
C1219      F1226   1.358       .  S
C1220      C1221   1.405       .  A
C1221      C1222   1.399       .  A
C1221      F1228   1.358       .  S
C1222      C1223   1.405       .  A
C1222      F1227   1.358   1_455  S
C1223      C1224   1.403       .  A
C1224      F1225   1.358       .  S
C1229      C1230   1.413       .  A
C1229      C1234   1.385       .  A
C1229      F1236   1.359       .  S
C1230      C1231   1.405       .  A
C1231      C1232   1.387       .  A
C1231      F1238   1.358       .  S
C1232      C1233   1.399       .  A
C1232      F1237   1.358       .  S
C1233      C1234   1.391       .  A
C1234      F1235   1.358       .  S
C1239      C1240   1.403       .  A
C1239      C1244   1.401       .  A
C1239      F1246   1.358       .  S
C1240      C1241   1.413       .  A
C1241      C1242   1.399       .  A
C1241      F1248   1.358       .  S
C1242      C1243   1.397       .  A
C1242      F1247   1.357       .  S
C1243      C1244   1.409       .  A
C1244      F1245   1.358       .  S
