geometry optimzed in LAMMPS
_audit_creation_date              2020-11-30 
_audit_creation_method            'lammps2cif' 
_symmetry_space_group_name_H-M    'P1' 
_symmetry_Int_Tables_number       1 
_symmetry_cell_setting            triclinic 
loop_ 
_symmetry_equiv_pos_as_xyz 
  x,y,z 
_cell_length_a                    34.96650044 
_cell_length_b                    34.92528054866963 
_cell_length_c                    29.86182053487395 
_cell_angle_alpha                 89.87203653585509 
_cell_angle_beta                  89.92398493274179 
_cell_angle_gamma                 120.09388209724318 
loop_ 
_atom_site_label 
_atom_site_type_symbol 
_atom_site_fract_x 
_atom_site_fract_y 
_atom_site_fract_z 
_atom_site_charge 
Fe1        Fe  0.58658935  0.66526714  0.41008267     1.65800
Fe2        Fe  0.50105990  0.66365771  0.46641101     1.73200
Fe3        Fe  0.50388517  0.66828827  0.35234345     1.54400
O4          O  0.56371530  0.72212131  0.33380526    -0.81900
O5          O  0.43892202  0.62172711  0.44145063    -0.80200
O6          O  0.61640941  0.72465475  0.37873988    -0.84400
O7          O  0.57757302  0.63290299  0.34999474    -0.79200
O8          O  0.48523425  0.71208918  0.37676302    -0.81000
O9          O  0.50449067  0.60818570  0.48454841    -0.83800
C10         C  0.55024585  0.61886813  0.31809745     0.97000
C11         C  0.60290010  0.74157994  0.34960606     1.04400
O12         O  0.53042381  0.66566844  0.40960838    -1.12700
O13         O  0.55777130  0.70529862  0.50246042    -0.75200
O14         O  0.61048720  0.69804867  0.47000087    -0.78700
O15         O  0.51765105  0.62524536  0.31716361    -0.79400
C16         C  0.59689478  0.71206940  0.50165710     0.95900
O17         O  0.55642483  0.60576164  0.44184693    -0.77300
O18         O  0.49410882  0.71796560  0.45064109    -0.82500
C19         C  0.42030735  0.60490576  0.40448762     0.98500
C20         C  0.48399924  0.72922566  0.41381972     1.04400
O21         O  0.44169811  0.61531961  0.36773188    -0.78200
C22         C  0.52499584  0.58898235  0.47012740     1.02700
Fe23       Fe  0.66175780  0.59658005  0.07912666     1.65800
Fe24       Fe  0.65725821  0.51102503  0.02117030     1.73200
Fe25       Fe  0.66381888  0.51298183  0.13535351     1.54400
O26         O  0.71715599  0.57299886  0.15469234    -0.81900
O27         O  0.61305802  0.44913520  0.04520423    -0.80200
O28         O  0.72296734  0.62525624  0.10619095    -0.84400
O29         O  0.63306138  0.58921320  0.14131609    -0.79200
O30         O  0.70879628  0.49609508  0.11065460    -0.81000
O31         O  0.60330620  0.51803155  0.00404364    -0.83800
C32         C  0.61571885  0.55950002  0.17100390     0.97000
C33         C  0.73835976  0.61116239  0.13640419     1.04400
O34         O  0.66097506  0.53993077  0.07851490    -1.12700
O35         O  0.70102350  0.56783533  0.98615794    -0.75200
O36         O  0.69036503  0.61898931  0.01711853    -0.78700
O37         O  0.61922431  0.52514419  0.16973495    -0.79400
C38         C  0.70578110  0.60622002  0.98606622     0.95900
O39         O  0.60052288  0.56643604  0.05179452    -0.77300
O40         O  0.70955619  0.50032179  0.03605101    -0.82500
C41         C  0.59800961  0.43013612  0.08247568     0.98500
C42         C  0.72330441  0.49265951  0.07274483     1.04400
O43         O  0.61155868  0.45060538  0.11949544    -0.78200
C44         C  0.58352383  0.53666010  0.02195413     1.02700
Fe45       Fe  0.72983689  0.73931667  0.74155602     1.65800
Fe46       Fe  0.81405030  0.82145575  0.79972688     1.73200
Fe47       Fe  0.81705496  0.82233280  0.68570667     1.54400
O48         O  0.81135850  0.76243383  0.66738725    -0.81900
O49         O  0.83600958  0.88412016  0.77605405    -0.80200
O50         O  0.75972385  0.70895634  0.71168162    -0.84400
O51         O  0.70852458  0.74850827  0.68060747    -0.79200
O52         O  0.87890594  0.84038349  0.71097343    -0.81000
O53         O  0.75528479  0.81933086  0.81757341    -0.83800
C54         C  0.72196945  0.77634315  0.64907340     0.97000
C55         C  0.79111258  0.72304591  0.68327890     1.04400
O56         O  0.78704897  0.79445961  0.74226423    -1.12700
O57         O  0.79737790  0.76358602  0.83427888    -0.75200
O58         O  0.73531133  0.71439951  0.80244921    -0.78700
O59         O  0.76088735  0.80932482  0.64900920    -0.79400
C60         C  0.76325864  0.72559381  0.83355389     0.95900
O61         O  0.70176054  0.77175277  0.77110805    -0.77300
O62         O  0.87492336  0.82698308  0.78406087    -0.82500
C63         C  0.83772316  0.90426837  0.74011891     0.98500
C64         C  0.89672339  0.83887398  0.74743335     1.04400
O65         O  0.82616532  0.88437739  0.70256115    -0.78200
C66         C  0.71665702  0.80232259  0.80029818     1.02700
Fe67       Fe  0.32414938  0.40470717  0.92043991     1.65800
Fe68       Fe  0.32459059  0.48931661  0.86375782     1.73200
Fe69       Fe  0.32552266  0.48955709  0.97778467     1.54400
O70         O  0.28221055  0.43251406  0.01277935    -0.81900
O71         O  0.37975449  0.54966691  0.88073750    -0.80200
O72         O  0.29280473  0.38154522  0.98139630    -0.84400
O73         O  0.38413188  0.43542077  0.95123886    -0.79200
O74         O  0.27234337  0.49812367  0.96094580    -0.81000
O75         O  0.36535757  0.47330209  0.82742185    -0.83800
C76         C  0.40029138  0.46591675  0.98061290     0.97000
C77         C  0.27756825  0.39418816  0.01282106     1.04400
O78         O  0.32472392  0.46117989  0.92065007    -1.12700
O79         O  0.26860588  0.43082004  0.84535617    -0.75200
O80         O  0.26384038  0.37610418  0.88973921    -0.78700
O81         O  0.37983647  0.48442545  0.99709563    -0.79400
C82         C  0.24781502  0.39146113  0.86124934     0.95900
O83         O  0.35578797  0.41214185  0.85939163    -0.77300
O84         O  0.28331631  0.51064704  0.88791182    -0.82500
C85         C  0.38919394  0.57045100  0.91786730     0.98500
C86         C  0.26404282  0.51062972  0.92391049     1.04400
O87         O  0.36926119  0.55190886  0.95391151    -0.78200
C88         C  0.37016785  0.43973469  0.82750154     1.02700
Fe89       Fe  0.39853047  0.33439091  0.58184723     1.65800
Fe90       Fe  0.48098337  0.33276566  0.64074902     1.73200
Fe91       Fe  0.48379327  0.33436316  0.52684675     1.54400
O92         O  0.42742479  0.29168517  0.49146811    -0.81900
O93         O  0.54214503  0.38739336  0.62481568    -0.80200
O94         O  0.37575728  0.30182006  0.52186709    -0.84400
O95         O  0.42959467  0.39382902  0.54934605    -0.79200
O96         O  0.48983045  0.28013609  0.54440170    -0.81000
O97         O  0.46496021  0.37410479  0.67632110    -0.83800
C98         C  0.46040672  0.40916400  0.52016643     0.97000
C99         C  0.38882410  0.28609921  0.49136976     1.04400
O100        O  0.45452893  0.33409753  0.58316792    -1.12700
O101        O  0.42174832  0.27696356  0.65814477    -0.75200
O102        O  0.36866709  0.27445435  0.61307259    -0.78700
O103        O  0.48025735  0.38908593  0.50639228    -0.79400
C104        C  0.38289900  0.25743615  0.64147112     0.95900
O105        O  0.40589397  0.36662105  0.64221490    -0.77300
O106        O  0.50188376  0.29075607  0.61740554    -0.82500
C107        C  0.56384451  0.39649153  0.58821915     0.98500
C108        C  0.50100632  0.27092156  0.58161934     1.04400
O109        O  0.54578843  0.37716082  0.55183619    -0.78200
C110        C  0.43217737  0.38015558  0.67509472     1.02700
Fe111      Fe  0.25480979  0.25968742  0.25297007     1.65800
Fe112      Fe  0.16958516  0.17423324  0.19751956     1.73200
Fe113      Fe  0.16843304  0.17803683  0.31143661     1.54400
O114        O  0.22466041  0.19212278  0.34703100    -0.81900
O115        O  0.10880487  0.16813368  0.21331315    -0.80200
O116        O  0.27878256  0.24949995  0.31221888    -0.84400
O117        O  0.22716249  0.29083697  0.28569029    -0.79200
O118        O  0.16027047  0.11630181  0.29695384    -0.81000
O119        O  0.18511750  0.23086785  0.16105262    -0.83800
C120        C  0.19570014  0.27749071  0.31383048     0.97000
C121        C  0.26446343  0.22290965  0.34493796     1.04400
O122        O  0.19760365  0.20405887  0.25397458    -1.12700
O123        O  0.22773262  0.17664901  0.17876627    -0.75200
O124        O  0.28265290  0.22866648  0.22036693    -0.78700
O125        O  0.17385652  0.23786923  0.32861008    -0.79400
C126        C  0.26753585  0.19675800  0.19276640     0.95900
O127        O  0.24504747  0.28380101  0.19344359    -0.77300
O128        O  0.14932778  0.11223797  0.22340990    -0.82500
C129        C  0.08779864  0.15797286  0.25028710     0.98500
C130        C  0.14917360  0.09451030  0.26058252     1.04400
O131        O  0.10642838  0.15889041  0.28699416    -0.78200
C132        C  0.21744410  0.27008869  0.16176111     1.02700
Fe133      Fe  0.39948524  0.07197613  0.08308961     1.65800
Fe134      Fe  0.48517009  0.15708168  0.02704826     1.73200
Fe135      Fe  0.48281438  0.15672249  0.14078636     1.54400
O136        O  0.42387314  0.15317924  0.15871726    -0.81900
O137        O  0.54735285  0.17766958  0.05238972    -0.80200
O138        O  0.36979485  0.10088226  0.11631112    -0.84400
O139        O  0.40852376  0.04708406  0.14249345    -0.79200
O140        O  0.50369934  0.21909248  0.11653683    -0.81000
O141        O  0.48258999  0.09874007  0.00839745    -0.83800
C142        C  0.43510723  0.06072559  0.17505479     0.97000
C143        C  0.38408394  0.13230670  0.14451249     1.04400
O144        O  0.45570852  0.12849871  0.08361896    -1.12700
O145        O  0.42856397  0.14159879  0.99051260    -0.75200
O146        O  0.37546925  0.08218382  0.02373396    -0.78700
O147        O  0.46715585  0.09993348  0.17639248    -0.79400
C148        C  0.38917117  0.10957699  0.99166265     0.95900
O149        O  0.42976800  0.04358924  0.04999380    -0.77300
O150        O  0.49107401  0.21779906  0.04369342    -0.82500
C151        C  0.56550223  0.17637048  0.08870837     0.98500
C152        C  0.50332865  0.23840504  0.08081476     1.04400
O153        O  0.54381702  0.16322579  0.12521180    -0.78200
C154        C  0.46175358  0.05869958  0.02229096     1.02700
Fe155      Fe  0.25541983  0.00355388  0.75252793     1.65800
Fe156      Fe  0.17101162  0.00055485  0.69398175     1.73200
Fe157      Fe  0.16890196  0.00152251  0.80805801     1.54400
O158        O  0.17436390  0.94779351  0.82831891    -0.81900
O159        O  0.15093918  0.04305584  0.71618368    -0.80200
O160        O  0.22567762  0.94466976  0.78515025    -0.84400
O161        O  0.27781742  0.03644667  0.81247682    -0.79200
O162        O  0.10652054  0.95685487  0.78419505    -0.81000
O163        O  0.22965911  0.05585476  0.67364024    -0.83800
C164        C  0.26434421  0.05098339  0.84376769     0.97000
C165        C  0.19426359  0.92806450  0.81362869     1.04400
O166        O  0.19845662  0.00197107  0.75162050    -1.12700
O167        O  0.18623847  0.95775672  0.66113339    -0.75200
O168        O  0.24843416  0.97034584  0.69263070    -0.78700
O169        O  0.22552308  0.04517709  0.84372766    -0.79400
C170        C  0.22000517  0.95341231  0.66182023     0.95900
O171        O  0.28349012  0.06295658  0.72045631    -0.77300
O172        O  0.11005102  0.94618180  0.71139474    -0.82500
C173        C  0.14890166  0.06215222  0.75129750     0.98500
C174        C  0.08853512  0.93673177  0.74813040     1.04400
O175        O  0.15992397  0.05433592  0.78948572    -0.78200
C176        C  0.26835957  0.07759340  0.69042668     1.02700
Fe177      Fe  0.32344008  0.92844311  0.41618924     1.78400
Fe178      Fe  0.32562597  0.84558939  0.47430187     1.73200
Fe179      Fe  0.32439083  0.84506125  0.36001067     1.54400
O180        O  0.27127742  0.85179854  0.33873536    -0.81900
O181        O  0.37076410  0.82848439  0.45165442    -0.80200
O182        O  0.26316763  0.89660262  0.38703856    -0.84400
O183        O  0.35336365  0.95087698  0.35432541    -0.79200
O184        O  0.27945648  0.78384624  0.38290835    -0.81000
O185        O  0.37886909  0.90672326  0.49351542    -0.83800
C186        C  0.37187487  0.93921124  0.32537031     0.97000
C187        C  0.24913210  0.86835065  0.35564937     1.04400
O188        O  0.32442660  0.87271040  0.41697180    -1.12700
O189        O  0.28052148  0.85782453  0.50788453    -0.75200
O190        O  0.29353962  0.92095859  0.47778884    -0.78700
O191        O  0.37007533  0.90224670  0.32770226    -0.79400
C192        C  0.27677600  0.89209088  0.50835403     0.95900
O193        O  0.38360587  0.95880181  0.44530706    -0.77300
O194        O  0.27401886  0.78198280  0.45719534    -0.82500
C195        C  0.38711720  0.82493724  0.41507302     0.98500
C196        C  0.26355279  0.76291042  0.41904109     1.04400
O197        O  0.37583495  0.83382493  0.37758982    -0.78200
C198        C  0.39930722  0.94555604  0.47608127     1.02700
Fe199      Fe  0.58781046  0.92860316  0.91695514     1.65800
Fe200      Fe  0.50385007  0.84418563  0.97517082     1.73200
Fe201      Fe  0.50350649  0.84256973  0.86131716     1.54400
O202        O  0.51718680  0.89876894  0.82549573    -0.81900
O203        O  0.49699205  0.78284823  0.95891446    -0.80200
O204        O  0.57737519  0.95219175  0.85701241    -0.84400
O205        O  0.61706722  0.89851325  0.88474400    -0.79200
O206        O  0.44218481  0.83520288  0.87869586    -0.81000
O207        O  0.56105875  0.85974770  0.00990234    -0.83800
C208        C  0.60238958  0.86696792  0.85665004     0.97000
C209        C  0.54901943  0.93814265  0.82597630     1.04400
O210        O  0.53176668  0.87185779  0.91782076    -1.12700
O211        O  0.50757804  0.90318810  0.99381157    -0.75200
O212        O  0.55791903  0.95753636  0.94947367    -0.78700
O213        O  0.56277902  0.84689826  0.84167842    -0.79400
C214        C  0.52738419  0.94287943  0.97879125     0.95900
O215        O  0.61255667  0.92051736  0.97705195    -0.77300
O216        O  0.44133355  0.82393475  0.95187144    -0.82500
C217        C  0.48523186  0.76190423  0.92192548     0.98500
C218        C  0.42190305  0.82406493  0.91620279     1.04400
O219        O  0.48434728  0.78064175  0.88596203    -0.78200
C220        C  0.59955275  0.89317320  0.00919772     1.02700
Fe221      Fe  0.73180566  0.00232181  0.25023236     1.65800
Fe222      Fe  0.81321612  0.99914484  0.30926392     1.73200
Fe223      Fe  0.81662453  0.00104447  0.19527513     1.54400
O224        O  0.75969472  0.95816669  0.16017061    -0.81900
O225        O  0.87464431  0.05209200  0.29347004    -0.80200
O226        O  0.70882236  0.97009798  0.18990366    -0.84400
O227        O  0.76325924  0.06162055  0.21809672    -0.79200
O228        O  0.82362573  0.94691443  0.21318648    -0.81000
O229        O  0.79958192  0.04223434  0.34346220    -0.83800
C230        C  0.79341362  0.07643667  0.18834086     0.97000
C231        C  0.72160000  0.95405964  0.15939280     1.04400
O232        O  0.78731897  0.00096484  0.25155009    -1.12700
O233        O  0.75349855  0.94534981  0.32763904    -0.75200
O234        O  0.70136106  0.94275408  0.28165835    -0.78700
O235        O  0.81262161  0.05570319  0.17436943    -0.79400
C236        C  0.71466493  0.92573429  0.31101488     0.95900
O237        O  0.73990020  0.03477731  0.31044850    -0.77300
O238        O  0.83201272  0.95545565  0.28668493    -0.82500
C239        C  0.89657095  0.06225245  0.25712361     0.98500
C240        C  0.83318812  0.93672034  0.25091598     1.04400
O241        O  0.87892975  0.04436472  0.22004388    -0.78200
C242        C  0.76705959  0.04853047  0.34252070     1.02700
Fe243      Fe  0.65554786  0.07016973  0.58260752     1.65800
Fe244      Fe  0.65775625  0.15615892  0.52727301     1.73200
Fe245      Fe  0.65753610  0.15433357  0.64139089     1.54400
O246        O  0.61302305  0.09651698  0.67518899    -0.81900
O247        O  0.71177597  0.21654094  0.54550408    -0.80200
O248        O  0.62357589  0.04614605  0.64269159    -0.84400
O249        O  0.71478295  0.09885326  0.61407521    -0.79200
O250        O  0.60471682  0.16339998  0.62434132    -0.81000
O251        O  0.70067624  0.14226264  0.49261763    -0.83800
C252        C  0.73115289  0.12862310  0.64408445     0.97000
C253        C  0.60741029  0.05778714  0.67397719     1.04400
O254        O  0.65705302  0.12704056  0.58379410    -1.12700
O255        O  0.60252136  0.09779316  0.50668183    -0.75200
O256        O  0.59595329  0.04294062  0.55178787    -0.78700
O257        O  0.71130798  0.14792593  0.66027386    -0.79400
C258        C  0.58085656  0.05855837  0.52273025     0.95900
O259        O  0.68746559  0.07889981  0.52201207    -0.77300
O260        O  0.61511953  0.17557156  0.55113070    -0.82500
C261        C  0.72158918  0.23667257  0.58293532     0.98500
C262        C  0.59556419  0.17484024  0.58707912     1.04400
O263        O  0.70217236  0.21741158  0.61899732    -0.78200
C264        C  0.70435405  0.10809545  0.49177317     1.02700
Fe265      Fe  0.06382456  0.40557157  0.41114823     1.65800
Fe266      Fe  0.14465557  0.49070444  0.46882725     1.73200
Fe267      Fe  0.14715000  0.48933599  0.35466203     1.54400
O268        O  0.14164776  0.42915113  0.33608434    -0.81900
O269        O  0.16042299  0.55256141  0.44592396    -0.80200
O270        O  0.09787757  0.37763475  0.38655975    -0.84400
O271        O  0.04420845  0.40947991  0.34684161    -0.79200
O272        O  0.20908848  0.50748918  0.37829816    -0.81000
O273        O  0.08312527  0.48124541  0.48732560    -0.83800
C274        C  0.05495551  0.43887379  0.31708911     0.97000
C275        C  0.12690317  0.39161433  0.35564106     1.04400
O276        O  0.11896859  0.46235587  0.41159893    -1.12700
O277        O  0.13360546  0.43361415  0.50184504    -0.75200
O278        O  0.06853084  0.38508268  0.47473910    -0.78700
O279        O  0.08959989  0.47621983  0.32085457    -0.79400
C280        C  0.09822219  0.39664228  0.50407594     0.95900
O281        O  0.03294625  0.43690462  0.43614410    -0.77300
O282        O  0.20802055  0.50332014  0.45260926    -0.82500
C283        C  0.16381080  0.57146040  0.40865683     0.98500
C284        C  0.22846295  0.51142105  0.41530788     1.04400
O285        O  0.15650084  0.55125361  0.37134982    -0.78200
C286        C  0.04562374  0.46506783  0.46773433     1.02700
Fe287      Fe  0.92086808  0.32949270  0.07268081     1.65800
Fe288      Fe  0.83862832  0.33360487  0.01775091     1.73200
Fe289      Fe  0.84032189  0.33397698  0.13209744     1.54400
O290        O  0.84595530  0.27961932  0.15259003    -0.81900
O291        O  0.82278845  0.37913712  0.04089208    -0.80200
O292        O  0.88857135  0.26967019  0.10266045    -0.84400
O293        O  0.94477113  0.35858124  0.13376869    -0.79200
O294        O  0.77711502  0.28930674  0.11118721    -0.81000
O295        O  0.89914960  0.38618923  0.99649208    -0.83800
C296        C  0.93576717  0.37821679  0.16379827     0.97000
C297        C  0.86140112  0.25663780  0.13510487     1.04400
O298        O  0.86635474  0.33249836  0.07419560    -1.12700
O299        O  0.84820700  0.28712806  0.98404720    -0.75200
O300        O  0.91129734  0.29872996  0.01187212    -0.78700
O301        O  0.89998115  0.37918248  0.16288369    -0.79400
C302        C  0.88136801  0.28182869  0.98270407     0.95900
O303        O  0.95173136  0.38951271  0.04252789    -0.77300
O304        O  0.77651024  0.28265192  0.03705088    -0.82500
C305        C  0.81915859  0.39589598  0.07705534     0.98500
C306        C  0.75692630  0.27202564  0.07490546     1.04400
O307        O  0.82960382  0.38639668  0.11477928    -0.78200
C308        C  0.93825613  0.40612066  0.01281555     1.02700
Fe309      Fe  0.99109266  0.26093273  0.74512457     1.65800
Fe310      Fe  0.99772710  0.18066318  0.80257873     1.73200
Fe311      Fe  0.99147776  0.17690439  0.68841139     1.54400
O312        O  0.93560909  0.17964987  0.67056135    -0.81900
O313        O  0.04488944  0.16701755  0.77897946    -0.80200
O314        O  0.93033775  0.22764938  0.71657979    -0.84400
O315        O  0.02018166  0.28408533  0.68350271    -0.79200
O316        O  0.94947497  0.11429000  0.71294441    -0.81000
O317        O  0.04878060  0.24214954  0.82202058    -0.83800
C318        C  0.03613434  0.27202408  0.65231831     0.97000
C319        C  0.91424001  0.19691872  0.68757063     1.04400
O320        O  0.99358227  0.20598503  0.74526431    -1.12700
O321        O  0.95050515  0.18917881  0.83546403    -0.75200
O322        O  0.96066519  0.25182412  0.80668558    -0.78700
O323        O  0.03298772  0.23428485  0.65267831    -0.79400
C324        C  0.94443462  0.22190008  0.83627456     0.95900
O325        O  0.05227845  0.29317524  0.77350629    -0.77300
O326        O  0.94817642  0.11710158  0.78722813    -0.82500
C327        C  0.05993243  0.16387401  0.74137812     0.98500
C328        C  0.93543515  0.09580717  0.75068610     1.04400
O329        O  0.04586197  0.17034919  0.70431347    -0.78200
C330        C  0.06882677  0.28054435  0.80404106     1.02700
Fe331      Fe  0.06402278  0.66792448  0.91600230     1.65800
Fe332      Fe  0.14797893  0.66737150  0.97296316     1.73200
Fe333      Fe  0.15017361  0.67145844  0.85912114     1.54400
O334        O  0.09370984  0.62784539  0.82416345    -0.81900
O335        O  0.20930739  0.72175837  0.95709038    -0.80200
O336        O  0.04147929  0.63666745  0.85529026    -0.84400
O337        O  0.09374689  0.72791966  0.88557129    -0.79200
O338        O  0.15929498  0.61862586  0.87503507    -0.81000
O339        O  0.13296432  0.70955554  0.00811272    -0.83800
C340        C  0.12461086  0.74492833  0.85663060     0.97000
C341        C  0.05491460  0.62184973  0.82423291     1.04400
O342        O  0.12086040  0.66900653  0.91602831    -1.12700
O343        O  0.08886501  0.61166531  0.99079823    -0.75200
O344        O  0.03529040  0.60767092  0.94599270    -0.78700
O345        O  0.14421396  0.72535232  0.84080940    -0.79400
C346        C  0.04998140  0.59093520  0.97421130     0.95900
O347        O  0.07152234  0.69915259  0.97673693    -0.77300
O348        O  0.16814014  0.62497154  0.94880505    -0.82500
C349        C  0.23047451  0.73305880  0.92010253     0.98500
C350        C  0.16965990  0.60784854  0.91189137     1.04400
O351        O  0.21219644  0.71548852  0.88326133    -0.78200
C352        C  0.09961975  0.71470261  0.00789929     1.02700
Fe353      Fe  0.99188086  0.73828113  0.24868667     1.65800
Fe354      Fe  0.99027943  0.82267897  0.19334848     1.73200
Fe355      Fe  0.99240251  0.82132346  0.30750021     1.54400
O356        O  0.94809229  0.76375778  0.34009897    -0.81900
O357        O  0.04248166  0.88453372  0.21131486    -0.80200
O358        O  0.96217574  0.71439717  0.31040132    -0.84400
O359        O  0.05233555  0.76885045  0.27791140    -0.79200
O360        O  0.93972512  0.83089015  0.29159853    -0.81000
O361        O  0.03481903  0.81098918  0.15842680    -0.83800
C362        C  0.06732950  0.79748958  0.30900839     0.97000
C363        C  0.94550863  0.72639978  0.34100566     1.04400
O364        O  0.99162943  0.79434274  0.24979485    -1.12700
O365        O  0.93709305  0.76299181  0.17275250    -0.75200
O366        O  0.93138171  0.70965085  0.21988144    -0.78700
O367        O  0.04607895  0.81480822  0.32638746    -0.79400
C368        C  0.91610854  0.72428140  0.18999997     0.95900
O369        O  0.02189686  0.74717403  0.18675416    -0.77300
O370        O  0.94525329  0.83926551  0.21766116    -0.82500
C371        C  0.05402050  0.90382549  0.24911874     0.98500
C372        C  0.92784579  0.84006209  0.25466130     1.04400
O373        O  0.03685220  0.88368846  0.28544932    -0.78200
C374        C  0.03843069  0.77673455  0.15677943     1.02700
Fe375      Fe  0.92112085  0.59428048  0.58434047     1.65800
Fe376      Fe  0.83709971  0.50982762  0.52742892     1.73200
Fe377      Fe  0.83546832  0.50981872  0.64102238     1.54400
O378        O  0.89217748  0.52541704  0.67719353    -0.81900
O379        O  0.77710455  0.50457702  0.54358321    -0.80200
O380        O  0.94485870  0.58517770  0.64407850    -0.84400
O381        O  0.89110389  0.62339082  0.61676956    -0.79200
O382        O  0.82959121  0.44902682  0.62459465    -0.81000
O383        O  0.85280559  0.56655296  0.49160447    -0.83800
C384        C  0.85944906  0.60847156  0.64494478     0.97000
C385        C  0.93123951  0.55798556  0.67622793     1.04400
O386        O  0.86468139  0.53810026  0.58432099    -1.12700
O387        O  0.89537745  0.51270044  0.50897620    -0.75200
O388        O  0.94988607  0.56368737  0.55240970    -0.78700
O389        O  0.83880299  0.56855547  0.65930063    -0.79400
C390        C  0.93472906  0.53216669  0.52428145     0.95900
O391        O  0.91268360  0.61867698  0.52430280    -0.77300
O392        O  0.81592799  0.44722729  0.55190764    -0.82500
C393        C  0.75513798  0.49118875  0.57981666     0.98500
C394        C  0.81724434  0.42824985  0.58757673     1.04400
O395        O  0.77281646  0.48914427  0.61620848    -0.78200
C396        C  0.88551733  0.60539492  0.49224515     1.02700
C397        C  0.92443097  0.69642417  0.38004199    -0.00400
C398        C  0.89701190  0.65081534  0.37301780    -0.12200
C399        C  0.88131268  0.62077828  0.40909006     0.01900
C400        C  0.89411411  0.63610284  0.45356386    -0.00500
C401        C  0.92021080  0.68202015  0.46047808    -0.12200
C402        C  0.93505231  0.71203050  0.42448385     0.01800
H403        H  0.88856537  0.63847768  0.33903879     0.14700
H404        H  0.93029729  0.69456536  0.49417745     0.14700
C405        C  0.96392516  0.75841345  0.43398662     0.36400
C406        C  0.85409774  0.57432067  0.39892635     0.36300
N407        N  0.98711587  0.79558143  0.44152363    -0.44000
N408        N  0.83211674  0.53712831  0.39066415    -0.44000
C409        C  0.09142077  0.73793955  0.04576718    -0.00400
C410        C  0.06590087  0.75822584  0.03783845    -0.12200
C411        C  0.05099934  0.77404813  0.07319142     0.01900
C412        C  0.06089753  0.76918629  0.11800942    -0.00500
C413        C  0.08823487  0.75105281  0.12586452    -0.12200
C414        C  0.10396726  0.73609805  0.09047821     0.01800
H415        H  0.05620423  0.76040787  0.00386813     0.14700
H416        H  0.09624448  0.74726309  0.16007242     0.14700
C417        C  0.13058506  0.71651094  0.10161706     0.36400
C418        C  0.02272317  0.79192859  0.06264279     0.36300
N419        N  0.15204650  0.70097297  0.11069239    -0.44000
N420        N  0.00003545  0.80620390  0.05410007    -0.44000
C421        C  0.02413082  0.59850392  0.78626191    -0.00400
C422        C  0.97832996  0.57482345  0.79462915    -0.12200
C423        C  0.94750071  0.55860948  0.75951435     0.01900
C424        C  0.96213889  0.56653331  0.71446358    -0.00500
C425        C  0.00798100  0.58841663  0.70614782    -0.12200
C426        C  0.03881339  0.60383615  0.74129777     0.01800
H427        H  0.96644376  0.57022762  0.82890326     0.14700
H428        H  0.01992229  0.59485957  0.67186501     0.14700
C429        C  0.08524968  0.62766341  0.72995342     0.36400
C430        C  0.90113357  0.53696774  0.77091809     0.36300
N431        N  0.12246162  0.64665458  0.72085032    -0.44000
N432        N  0.86398184  0.51964093  0.78012879    -0.44000
C433        C  0.91979916  0.22731883  0.87406214    -0.00400
C434        C  0.89194225  0.24477035  0.86561997    -0.12200
C435        C  0.87524005  0.25891045  0.90078664     0.01900
C436        C  0.88753694  0.25694493  0.94548723    -0.00500
C437        C  0.91243541  0.23615797  0.95394934    -0.12200
C438        C  0.92820752  0.22108863  0.91894367     0.01800
H439        H  0.88462395  0.24899549  0.83128146     0.14700
H440        H  0.92152239  0.23361523  0.98808449     0.14700
C441        C  0.95623082  0.20303185  0.93002057     0.36400
C442        C  0.84821410  0.27804511  0.88962532     0.36300
N443        N  0.97870044  0.18856333  0.93880153    -0.44000
N444        N  0.82634506  0.29314630  0.88062490    -0.44000
C445        C  0.02131893  0.54392337  0.98528933    -0.00400
C446        C  0.99129996  0.51630221  0.95248357    -0.12200
C447        C  0.96524013  0.47082410  0.95938613     0.01900
C448        C  0.96865493  0.45237406  0.00012614    -0.00500
C449        C  0.99935966  0.47988446  0.03244579    -0.12200
C450        C  0.02565496  0.52520284  0.02541310     0.01800
H451        H  0.98887216  0.53008940  0.92071210     0.14700
H452        H  0.00197582  0.46622790  0.06422136     0.14700
C453        C  0.05571847  0.55152217  0.06052972     0.36400
C454        C  0.93660361  0.44400153  0.92360081     0.36300
N455        N  0.07988662  0.57247646  0.08865214    -0.44000
N456        N  0.91389851  0.42264874  0.89474659    -0.44000
C457        C  0.96367621  0.51578486  0.51015037    -0.00400
C458        C  0.96591932  0.50787023  0.46470042    -0.12200
C459        C  0.99196923  0.49059880  0.45019131     0.01900
C460        C  0.01602019  0.48089515  0.48174661    -0.00500
C461        C  0.01346517  0.48857098  0.52728383    -0.12200
C462        C  0.98702659  0.50538182  0.54181368     0.01800
H463        H  0.94759218  0.51559773  0.44051764     0.14700
H464        H  0.03150353  0.48060987  0.55159915     0.14700
C465        C  0.98213868  0.50866261  0.58943674     0.36400
C466        C  0.99464638  0.48492441  0.40269328     0.36300
N467        N  0.97803986  0.51043621  0.62768367    -0.44000
N468        N  0.99652586  0.48042952  0.36456839    -0.44000
C469        C  0.08956126  0.36583428  0.54235162    -0.00400
C470        C  0.06837608  0.32008556  0.53398806    -0.12200
C471        C  0.05273864  0.28899124  0.56911935     0.01900
C472        C  0.05790139  0.30338097  0.61409428    -0.00500
C473        C  0.07999280  0.34925468  0.62237557    -0.12200
C474        C  0.09613497  0.38032267  0.58726043     0.01800
H475        H  0.06252464  0.30847608  0.49963637     0.14700
H476        H  0.08342227  0.36100869  0.65653432     0.14700
C477        C  0.11609644  0.42666265  0.59830018     0.36400
C478        C  0.02798550  0.24263946  0.55769834     0.36300
N479        N  0.13196811  0.46375034  0.60732550    -0.44000
N480        N  0.00788526  0.20555533  0.54830738    -0.44000
C481        C  0.02724888  0.42679005  0.27583576    -0.00400
C482        C  0.00728268  0.45109180  0.26145976    -0.12200
C483        C  0.97702222  0.43621354  0.22538081     0.01900
C484        C  0.96756296  0.39723490  0.20201793    -0.00500
C485        C  0.98941752  0.37450107  0.21531375    -0.12200
C486        C  0.01848318  0.38854480  0.25165226     0.01800
H487        H  0.01449496  0.48110651  0.27889044     0.14700
H488        H  0.98303477  0.34471507  0.19774859     0.14700
C489        C  0.03956971  0.36324564  0.26291724     0.36400
C490        C  0.95688123  0.46186866  0.21247371     0.36300
N491        N  0.05632902  0.34281797  0.27163840    -0.44000
N492        N  0.94068844  0.48241943  0.20207226    -0.44000
C493        C  0.86753294  0.17898457  0.67541687    -0.00400
C494        C  0.84016533  0.18473616  0.70599907    -0.12200
C495        C  0.79529642  0.16736632  0.69769864     0.01900
C496        C  0.77686050  0.14346589  0.65795386    -0.00500
C497        C  0.80398988  0.13674106  0.62792668    -0.12200
C498        C  0.84887509  0.15422753  0.63613746     0.01800
H499        H  0.85369070  0.20253456  0.73702036     0.14700
H500        H  0.79051205  0.11894931  0.59689325     0.14700
C501        C  0.87476223  0.14728722  0.60278425     0.36400
C502        C  0.76930691  0.17429496  0.73092528     0.36300
N503        N  0.89520623  0.14152304  0.57589957    -0.44000
N504        N  0.74873983  0.18008093  0.75764442    -0.44000
C505        C  0.75454001  0.28523239  0.58445078    -0.00400
C506        C  0.76623794  0.30953337  0.54433490    -0.12200
C507        C  0.78961654  0.35591169  0.54431271     0.01900
C508        C  0.80120559  0.37959675  0.58543635    -0.00500
C509        C  0.79350391  0.35533284  0.62530455    -0.12200
C510        C  0.77105981  0.30882456  0.62515761     0.01800
H511        H  0.75547204  0.29235339  0.51263188     0.14700
H512        H  0.80362810  0.37258004  0.65701526     0.14700
C513        C  0.76554585  0.28656412  0.66750444     0.36400
C514        C  0.80020060  0.37774387  0.50116797     0.36300
N515        N  0.76152207  0.26897487  0.70152219    -0.44000
N516        N  0.80864582  0.39507592  0.46654272    -0.44000
C517        C  0.80923370  0.12142153  0.17163238    -0.00400
C518        C  0.85456821  0.14803216  0.16289216    -0.12200
C519        C  0.87269998  0.19273026  0.15271988     0.01900
C520        C  0.84508218  0.21141160  0.15106322    -0.00500
C521        C  0.79965471  0.18474191  0.15916374    -0.12200
C522        C  0.78144561  0.13990836  0.16911911     0.01800
H523        H  0.87626421  0.13426607  0.16554475     0.14700
H524        H  0.77809844  0.19865154  0.15626707     0.14700
C525        C  0.73412476  0.11351573  0.17513138     0.36400
C526        C  0.91989377  0.21882556  0.14560177     0.36300
N527        N  0.69621418  0.09240871  0.17985399    -0.44000
N528        N  0.95770324  0.23954688  0.13995386    -0.44000
C529        C  0.75861970  0.07038566  0.38117001    -0.00400
C530        C  0.73941737  0.09681174  0.37341604    -0.12200
C531        C  0.72426784  0.11210727  0.40897854     0.01900
C532        C  0.72741042  0.10033324  0.45367956    -0.00500
C533        C  0.74854719  0.07569584  0.46149304    -0.12200
C534        C  0.76426848  0.06096944  0.42603063     0.01800
H535        H  0.73489411  0.10436258  0.33926678     0.14700
H536        H  0.75140156  0.06648288  0.49550201     0.14700
C537        C  0.78276903  0.03323397  0.43676069     0.36400
C538        C  0.70284034  0.13711257  0.39815385     0.36300
N539        N  0.79747970  0.01094373  0.44549105    -0.44000
N540        N  0.68572145  0.15718411  0.38934111    -0.44000
C541        C  0.84890552  0.90383114  0.25376679    -0.00400
C542        C  0.85367927  0.88465957  0.21436269    -0.12200
C543        C  0.87554267  0.86011462  0.21448444     0.01900
C544        C  0.89481667  0.85548866  0.25448562    -0.00500
C545        C  0.88601706  0.87059375  0.29453404    -0.12200
C546        C  0.86292249  0.89384021  0.29474959     0.01800
H547        H  0.84144854  0.88985564  0.18294200     0.14700
H548        H  0.89889695  0.86599846  0.32583289     0.14700
C549        C  0.85541942  0.90770622  0.33784733     0.36400
C550        C  0.87749545  0.84009569  0.17290041     0.36300
N551        N  0.84935199  0.91858138  0.37246517    -0.44000
N552        N  0.87875072  0.82375464  0.13967311    -0.44000
C553        C  0.63017501  0.90214478  0.04789000    -0.00400
C554        C  0.67611096  0.92445484  0.04032083    -0.12200
C555        C  0.70638583  0.93866453  0.07598640     0.01900
C556        C  0.69111326  0.93190090  0.12081302    -0.00500
C557        C  0.64518852  0.90848547  0.12843094    -0.12200
C558        C  0.61487792  0.89331862  0.09277954     0.01800
H559        H  0.68858735  0.93194819  0.00624944     0.14700
H560        H  0.63282340  0.90317794  0.16257227     0.14700
C561        C  0.56834856  0.87177632  0.10354351     0.36400
C562        C  0.75296618  0.96280435  0.06541653     0.36300
N563        N  0.53108529  0.85457678  0.11225522    -0.44000
N564        N  0.79030386  0.98208205  0.05690290    -0.44000
C565        C  0.55551748  0.96772525  0.78707915    -0.00400
C566        C  0.55330054  0.95123697  0.74378997    -0.12200
C567        C  0.56717286  0.97930283  0.70623183     0.01900
C568        C  0.58375891  0.02543821  0.71131679    -0.00500
C569        C  0.58207987  0.04112420  0.75432072    -0.12200
C570        C  0.56824839  0.01279865  0.79194341     0.01800
H571        H  0.54285377  0.91651460  0.73946292     0.14700
H572        H  0.59354954  0.07599903  0.75904225     0.14700
C573        C  0.56685625  0.03052103  0.83514915     0.36400
C574        C  0.56485273  0.95959368  0.66308685     0.36300
N575        N  0.56520454  0.04451827  0.86973756    -0.44000
N576        N  0.56308994  0.94370275  0.62861619    -0.44000
C577        C  0.37336891  0.80851624  0.91901638    -0.00400
C578        C  0.34981326  0.80511299  0.87971914    -0.12200
C579        C  0.30344075  0.78429657  0.87982270     0.01900
C580        C  0.27917043  0.76515293  0.91981268    -0.00500
C581        C  0.30283539  0.77236334  0.95973795    -0.12200
C582        C  0.34911924  0.79391734  0.95991885     0.01800
H583        H  0.36748466  0.81756724  0.84836942     0.14700
H584        H  0.28510895  0.75914602  0.99094617     0.14700
C585        C  0.37002642  0.79893395  0.00291452     0.36400
C586        C  0.28197371  0.78311195  0.83814742     0.36300
N587        N  0.38649039  0.80282672  0.03749210    -0.44000
N588        N  0.26508492  0.78253903  0.80465821    -0.44000
C589        C  0.11304220  0.81413764  0.32316998    -0.00400
C590        C  0.13911077  0.85955935  0.33175415    -0.12200
C591        C  0.18409285  0.87850080  0.34039739     0.01900
C592        C  0.20364625  0.85162348  0.34053545    -0.00500
C593        C  0.17760643  0.80619368  0.33176328    -0.12200
C594        C  0.13249451  0.78719556  0.32340458     0.01800
H595        H  0.12454847  0.88064281  0.33048579     0.14700
H596        H  0.19216778  0.78512246  0.33319913     0.14700
C597        C  0.10670925  0.73985535  0.31715483     0.36400
C598        C  0.20940684  0.92567140  0.34794214     0.36300
N599        N  0.08601839  0.70191443  0.31235999    -0.44000
N600        N  0.22950738  0.96344990  0.35403396    -0.44000
C601        C  0.44487977  0.97619772  0.48960611    -0.00400
C602        C  0.47516265  0.00218546  0.45603617    -0.12200
C603        C  0.51982066  0.02937627  0.46576368     0.01900
C604        C  0.53465062  0.03034193  0.50971257    -0.00500
C605        C  0.50419006  0.00521425  0.54350429    -0.12200
C606        C  0.45942875  0.97851174  0.53388678     0.01800
H607        H  0.46412062  0.00035742  0.42177444     0.14700
H608        H  0.51527962  0.00716119  0.57776469     0.14700
C609        C  0.42898311  0.95558035  0.57018002     0.36400
C610        C  0.54976619  0.05442292  0.42983131     0.36300
N611        N  0.40447114  0.93751692  0.59924998    -0.44000
N612        N  0.57371763  0.07449446  0.40102558    -0.44000
C613        C  0.23381027  0.71396298  0.41480052    -0.00400
C614        C  0.20302810  0.68943374  0.44851841    -0.12200
C615        C  0.17719619  0.64295777  0.44595441     0.01900
C616        C  0.18176798  0.62014339  0.40894156    -0.00500
C617        C  0.21075934  0.64482504  0.37437922    -0.12200
C618        C  0.23717035  0.69073754  0.37719042     0.01800
H619        H  0.19961925  0.70643401  0.47722952     0.14700
H620        H  0.21541036  0.62786357  0.34633015     0.14700
C621        C  0.27010632  0.71205846  0.34239032     0.36400
C622        C  0.14636567  0.61948603  0.48178109     0.36300
N623        N  0.29660472  0.72892806  0.31465475    -0.44000
N624        N  0.12159909  0.60058769  0.51042782    -0.44000
C625        C  0.25474500  0.90078636  0.54696686    -0.00400
C626        C  0.26056269  0.88924058  0.59056860    -0.12200
C627        C  0.24803581  0.90433075  0.62852776     0.01900
C628        C  0.22820060  0.93084758  0.62346730    -0.00500
C629        C  0.21945154  0.93958345  0.57984470    -0.12200
C630        C  0.23278803  0.92535966  0.54197703     0.01800
H631        H  0.27715589  0.87032466  0.59518275     0.14700
H632        H  0.20405593  0.95962728  0.57518833     0.14700
C633        C  0.22398214  0.93714518  0.49837682     0.36400
C634        C  0.25632006  0.89222283  0.67213758     0.36300
N635        N  0.21689318  0.94678801  0.46355398    -0.44000
N636        N  0.26336816  0.88208456  0.70670996    -0.44000
C637        C  0.17776861  0.88196796  0.82696214    -0.00400
C638        C  0.18396663  0.85483661  0.79668334    -0.12200
C639        C  0.16573359  0.80982334  0.80443588     0.01900
C640        C  0.14059282  0.79101978  0.84359268    -0.00500
C641        C  0.13397140  0.81804106  0.87379013    -0.12200
C642        C  0.15226548  0.86315704  0.86592422     0.01800
H643        H  0.20208387  0.86861846  0.76563956     0.14700
H644        H  0.11530924  0.80415482  0.90452437     0.14700
C645        C  0.14486039  0.88906576  0.89880725     0.36400
C646        C  0.17252760  0.78397195  0.77095917     0.36300
N647        N  0.13868771  0.90962601  0.92517188    -0.44000
N648        N  0.17818359  0.76350129  0.74405427    -0.44000
C649        C  0.13133655  0.09321593  0.74636198    -0.00400
C650        C  0.13759962  0.12343904  0.78056589    -0.12200
C651        C  0.11787833  0.15002127  0.77822786     0.01900
C652        C  0.09120418  0.14666672  0.74100988    -0.00500
C653        C  0.08764809  0.11893369  0.70562452    -0.12200
C654        C  0.10649169  0.09197417  0.70804914     0.01800
H655        H  0.15715695  0.12570756  0.80963587     0.14700
H656        H  0.06699230  0.11556501  0.67711315     0.14700
C657        C  0.09614183  0.06096357  0.67177141     0.36400
C658        C  0.12547246  0.18030324  0.81451332     0.36300
N659        N  0.08743913  0.03607807  0.64271582    -0.44000
N660        N  0.13173392  0.20467328  0.84352809    -0.44000
C661        C  0.47764007  0.02892556  0.00843956    -0.00400
C662        C  0.52346731  0.04627093  0.00539047    -0.12200
C663        C  0.54074895  0.01854888  0.99788570     0.01900
C664        C  0.51176629  0.97263684  0.99323350    -0.00500
C665        C  0.46599768  0.95527925  0.99645135    -0.12200
C666        C  0.44870595  0.98299912  0.00371938     0.01800
H667        H  0.54590935  0.08139494  0.01023592     0.14700
H668        H  0.44358035  0.92015027  0.99155709     0.14700
C669        C  0.40123027  0.96365484  0.00454943     0.36400
C670        C  0.58822070  0.03785458  0.99632221     0.36300
N671        N  0.36321181  0.94821192  0.00512856    -0.44000
N672        N  0.62622620  0.05326958  0.99506519    -0.44000
C673        C  0.29524867  0.07339439  0.88215507    -0.00400
C674        C  0.34105265  0.09753082  0.87368787    -0.12200
C675        C  0.37218214  0.11177652  0.90861834     0.01900
C676        C  0.35793205  0.10207201  0.95376729    -0.00500
C677        C  0.31209665  0.07978645  0.96232254    -0.12200
C678        C  0.28097012  0.06551497  0.92733848     0.01800
H679        H  0.35272347  0.10361968  0.83929929     0.14700
H680        H  0.30037096  0.07185746  0.99660991     0.14700
C681        C  0.23472297  0.03952010  0.93891751     0.36400
C682        C  0.41838076  0.13286893  0.89660455     0.36300
N683        N  0.19772809  0.01854186  0.94847832    -0.44000
N684        N  0.45533513  0.14953636  0.88672090    -0.44000
C685        C  0.42637123  0.03009729  0.21374811    -0.00400
C686        C  0.40288289  0.98411571  0.20637000    -0.12200
C687        C  0.38718084  0.95387877  0.24220726     0.01900
C688        C  0.39446698  0.96936559  0.28682476    -0.00500
C689        C  0.41957457  0.01513354  0.29433229    -0.12200
C690        C  0.43582532  0.04540946  0.25855246     0.01800
H691        H  0.39526496  0.97167950  0.17237769     0.14700
H692        H  0.42536617  0.02739914  0.32844041     0.14700
C693        C  0.45936815  0.09198626  0.26922661     0.36400
C694        C  0.36054677  0.90732299  0.23212926     0.36300
N695        N  0.47825943  0.12927362  0.27795621    -0.44000
N696        N  0.33907394  0.87002822  0.22406295    -0.44000
C697        C  0.70812492  0.24016583  0.07783607    -0.00400
C698        C  0.68770873  0.22964315  0.12045718    -0.12200
C699        C  0.64152234  0.20667229  0.12542774     0.01900
C700        C  0.61417312  0.19298488  0.08710476    -0.00500
C701        C  0.63458042  0.19997158  0.04476318    -0.12200
C702        C  0.68065382  0.22338459  0.03972529     0.01800
H703        H  0.70783899  0.24115532  0.15040928     0.14700
H704        H  0.61438996  0.18873730  0.01481897     0.14700
C705        C  0.69814065  0.23123397  0.99469218     0.36400
C706        C  0.62365744  0.20005878  0.17023974     0.36300
N707        N  0.71189326  0.23752157  0.95849322    -0.44000
N708        N  0.60957219  0.19488590  0.20624710    -0.44000
C709        C  0.29729869  0.18065781  0.17898013    -0.00400
C710        C  0.32999520  0.18533871  0.20946136    -0.12200
C711        C  0.35787303  0.16871078  0.19984808     0.01900
C712        C  0.35335865  0.14703691  0.15880649    -0.00500
C713        C  0.32036062  0.14193464  0.12852209    -0.12200
C714        C  0.29239699  0.15846267  0.13818763     0.01800
H715        H  0.33327040  0.20126349  0.24148435     0.14700
H716        H  0.31707169  0.12598998  0.09650962     0.14700
C717        C  0.26013330  0.15326532  0.10498469     0.36400
C718        C  0.38975608  0.17334708  0.23327506     0.36300
N719        N  0.23433085  0.14889446  0.07824784    -0.44000
N720        N  0.41522690  0.17712589  0.26015333    -0.44000
C721        C  0.18161853  0.30891556  0.32692733    -0.00400
C722        C  0.18449052  0.33958168  0.29463122    -0.12200
C723        C  0.16668217  0.36674509  0.30267262     0.01900
C724        C  0.14549954  0.36337522  0.34392895    -0.00500
C725        C  0.14383649  0.33349608  0.37668077    -0.12200
C726        C  0.16172305  0.30644807  0.36861369     0.01800
H727        H  0.19931100  0.34126903  0.26219105     0.14700
H728        H  0.12898526  0.33154607  0.40915411     0.14700
C729        C  0.16014400  0.27742080  0.40404111     0.36400
C730        C  0.16938031  0.39632351  0.26732734     0.36300
N731        N  0.15893701  0.25428386  0.43249673    -0.44000
N732        N  0.17165331  0.41996743  0.23890408    -0.44000
C733        C  0.08654630  0.95229514  0.25229175    -0.00400
C734        C  0.09312029  0.97293366  0.29443783    -0.12200
C735        C  0.11607850  0.01905471  0.29882117     0.01900
C736        C  0.13326729  0.04606384  0.26034768    -0.00500
C737        C  0.13072475  0.02546504  0.21899969    -0.12200
C738        C  0.10798203  0.97927589  0.21468428     0.01800
H739        H  0.07839887  0.95309864  0.32427473     0.14700
H740        H  0.14530092  0.04557104  0.18927298     0.14700
C741        C  0.10678367  0.96091248  0.17109489     0.36400
C742        C  0.11897825  0.03719242  0.34294358     0.36300
N743        N  0.10607548  0.94624828  0.13618239    -0.44000
N744        N  0.12128179  0.05148361  0.37841434    -0.44000
C745        C  0.94513576  0.09437391  0.25742566    -0.00400
C746        C  0.96695280  0.11215533  0.21640710    -0.12200
C747        C  0.01327138  0.13566418  0.21327283     0.01900
C748        C  0.03915924  0.14165560  0.25182558    -0.00500
C749        C  0.01720706  0.12742345  0.29342915    -0.12200
C750        C  0.97103162  0.10410160  0.29661338     0.01800
H751        H  0.94774468  0.10640010  0.18612256     0.14700
H752        H  0.03607187  0.13259028  0.32384711     0.14700
C753        C  0.95171029  0.08846426  0.34040349     0.36400
C754        C  0.03283407  0.15212650  0.16980346     0.36300
N755        N  0.93636935  0.07602353  0.37553663    -0.44000
N756        N  0.04834704  0.16541820  0.13490687    -0.44000
C757        C  0.35338246  0.21149593  0.65346401    -0.00400
C758        C  0.33416334  0.20147713  0.69595085    -0.12200
C759        C  0.30536859  0.15763366  0.70797029     0.01900
C760        C  0.29626664  0.12352562  0.67716632    -0.00500
C761        C  0.31508364  0.13355514  0.63442940    -0.12200
C762        C  0.34378516  0.17748922  0.62232599     0.01800
H763        H  0.34130579  0.22789467  0.71942715     0.14700
H764        H  0.30803459  0.10711834  0.61101962     0.14700
C765        C  0.36405314  0.18679441  0.57844461     0.36400
C766        C  0.28461802  0.14847391  0.75158918     0.36300
N767        N  0.38031623  0.19396975  0.54334009    -0.44000
N768        N  0.26784222  0.14133687  0.78642613    -0.44000
C769        C  0.35777146  0.26203904  0.45391580    -0.00400
C770        C  0.31209185  0.23879729  0.46277744    -0.12200
C771        C  0.28096796  0.22253645  0.42800078     0.01900
C772        C  0.29529461  0.23024975  0.38280250    -0.00500
C773        C  0.34095024  0.25081812  0.37404118    -0.12200
C774        C  0.37204837  0.26619764  0.40890600     0.01800
H775        H  0.30056343  0.23466578  0.49716070     0.14700
H776        H  0.35255004  0.25641193  0.33962984     0.14700
C777        C  0.41836023  0.28879637  0.39714509     0.36400
C778        C  0.23472155  0.20076864  0.44000939     0.36300
N779        N  0.45545759  0.30675945  0.38761067    -0.44000
N780        N  0.19771029  0.18317081  0.44985672    -0.44000
C781        C  0.61257749  0.42880701  0.58677436    -0.00400
C782        C  0.63418903  0.43884622  0.54480964    -0.12200
C783        C  0.68039123  0.46141940  0.54122553     0.01900
C784        C  0.70662471  0.47509353  0.58034657    -0.00500
C785        C  0.68516682  0.46884883  0.62198009    -0.12200
C786        C  0.63888444  0.44613297  0.62555814     0.01800
H787        H  0.61496570  0.42719337  0.51431422     0.14700
H788        H  0.70461382  0.48027480  0.65236607     0.14700
C789        C  0.61980572  0.43977402  0.66974734     0.36400
C790        C  0.69938817  0.46736575  0.49697506     0.36300
N791        N  0.60464877  0.43483501  0.70523163    -0.44000
N792        N  0.71452373  0.47205811  0.46149873    -0.44000
C793        C  0.51633192  0.23794284  0.58345607    -0.00400
C794        C  0.52706883  0.22448265  0.54343230    -0.12200
C795        C  0.54925279  0.20039088  0.54374200     0.01900
C796        C  0.56292478  0.19060383  0.58498101    -0.00500
C797        C  0.54805599  0.19997855  0.62490054    -0.12200
C798        C  0.52428034  0.22251919  0.62449339     0.01800
H799        H  0.51950207  0.23404526  0.51156572     0.14700
H800        H  0.55617961  0.19097928  0.65677766     0.14700
C801        C  0.50848191  0.22905625  0.66689211     0.36400
C802        C  0.55745013  0.18655211  0.50093321     0.36300
N803        N  0.49548495  0.23393104  0.70082511    -0.44000
N804        N  0.56366238  0.17527666  0.46660530    -0.44000
C805        C  0.39070794  0.43061306  0.78783693    -0.00400
C806        C  0.42317244  0.41857701  0.79395560    -0.12200
C807        C  0.43927272  0.40471116  0.75771148     0.01900
C808        C  0.42220556  0.40166790  0.71383165    -0.00500
C809        C  0.39061955  0.41510131  0.70786957    -0.12200
C810        C  0.37491512  0.42925481  0.74398506     0.01800
H811        H  0.43543478  0.41918580  0.82744893     0.14700
H812        H  0.37671473  0.41305327  0.67493076     0.14700
C813        C  0.33967496  0.43854048  0.73565114     0.36400
C814        C  0.47179647  0.39194393  0.76732350     0.36300
N815        N  0.31117180  0.44560161  0.72908018    -0.44000
N816        N  0.49792450  0.38180717  0.77518479    -0.44000
C817        C  0.25524384  0.36296539  0.05116444    -0.00400
C818        C  0.23382818  0.31710781  0.04317550    -0.12200
C819        C  0.21852958  0.28623154  0.07845765     0.01900
C820        C  0.22520354  0.30083618  0.12342024    -0.00500
C821        C  0.24491348  0.34656485  0.13148552    -0.12200
C822        C  0.25948893  0.37746306  0.09609810     0.01800
H823        H  0.23033433  0.30523320  0.00905557     0.14700
H824        H  0.25028412  0.35838286  0.16574504     0.14700
C825        C  0.28159537  0.42389648  0.10725334     0.36400
C826        C  0.19914351  0.23997157  0.06733255     0.36300
N827        N  0.29931110  0.46108522  0.11634192    -0.44000
N828        N  0.18357714  0.20292338  0.05828573    -0.44000
C829        C  0.11423100  0.31102402  0.81839879    -0.00400
C830        C  0.12483193  0.31136525  0.86360341    -0.12200
C831        C  0.16825644  0.33719629  0.87822075     0.01900
C832        C  0.20202434  0.36279082  0.84702631    -0.00500
C833        C  0.19141417  0.36286606  0.80190978    -0.12200
C834        C  0.14796909  0.33698953  0.78725969     0.01800
H835        H  0.09900224  0.29157662  0.88763726     0.14700
H836        H  0.21732973  0.38253492  0.77790703     0.14700
C837        C  0.13980812  0.33562404  0.73978109     0.36400
C838        C  0.17653578  0.33853557  0.92568188     0.36300
N839        N  0.13403961  0.33460491  0.70157625    -0.44000
N840        N  0.18238149  0.33951262  0.96387300    -0.44000
C841        C  0.46926023  0.71325836  0.92010225    -0.00400
C842        C  0.46058778  0.68912111  0.96015457    -0.12200
C843        C  0.43791107  0.64263891  0.96019258     0.01900
C844        C  0.42232472  0.61891384  0.91935643    -0.00500
C845        C  0.43492238  0.64303394  0.87919050    -0.12200
C846        C  0.45830320  0.68941088  0.87904644     0.01800
H847        H  0.46996930  0.70647201  0.99187460     0.14700
H848        H  0.42468422  0.62569967  0.84749642     0.14700
C849        C  0.46921402  0.71102902  0.83580180     0.36400
C850        C  0.43084398  0.62056741  0.00293998     0.36300
N851        N  0.47777326  0.72809985  0.80104501    -0.44000
N852        N  0.42539596  0.60304363  0.03724287    -0.44000
C853        C  0.23266771  0.52815366  0.92122601    -0.00400
C854        C  0.22552864  0.54182160  0.87901538    -0.12200
C855        C  0.20272110  0.56511298  0.87449214     0.01900
C856        C  0.18636925  0.57584274  0.91291006    -0.00500
C857        C  0.19015707  0.55893286  0.95462217    -0.12200
C858        C  0.21259954  0.53516263  0.95906143     0.01800
H859        H  0.23921717  0.53574469  0.84905600     0.14700
H860        H  0.17657017  0.56536329  0.98445735     0.14700
C861        C  0.21493997  0.51925900  0.00305034     0.36400
C862        C  0.19857218  0.57903209  0.83004602     0.36300
N863        N  0.21644542  0.50630404  0.03833422    -0.44000
N864        N  0.19516371  0.58995548  0.79435387    -0.44000
C865        C  0.68784280  0.81954731  0.81400232    -0.00400
C866        C  0.68612293  0.82876354  0.85922425    -0.12200
C867        C  0.65842448  0.84425810  0.87367053     0.01900
C868        C  0.63255694  0.85166545  0.84228133    -0.00500
C869        C  0.63457881  0.84290931  0.79697032    -0.12200
C870        C  0.66221963  0.82728658  0.78250723     0.01800
H871        H  0.70549291  0.82259599  0.88350037     0.14700
H872        H  0.61497037  0.84885462  0.77280242     0.14700
C873        C  0.66509831  0.82163118  0.73498458     0.36400
C874        C  0.65495940  0.84913629  0.92122588     0.36300
N875        N  0.66725746  0.81767144  0.69677328    -0.44000
N876        N  0.65216556  0.85221644  0.95948207    -0.44000
C877        C  0.80748276  0.69326979  0.67118652    -0.00400
C878        C  0.85339534  0.71135412  0.66781636    -0.12200
C879        C  0.87149538  0.68416567  0.66181113     0.01900
C880        C  0.84322189  0.63800326  0.65856221    -0.00500
C881        C  0.79734623  0.61988110  0.66251262    -0.12200
C882        C  0.77926318  0.64704966  0.66873334     0.01800
H883        H  0.87533816  0.74675921  0.67135845     0.14700
H884        H  0.77536667  0.58447042  0.65905730     0.14700
C885        C  0.73172067  0.62672861  0.67101034     0.36400
C886        C  0.91906607  0.70436259  0.66052316     0.36300
N887        N  0.69364121  0.61040950  0.67285282    -0.44000
N888        N  0.95716711  0.72058147  0.65962392    -0.44000
C889        C  0.85672236  0.95320549  0.74367825    -0.00400
C890        C  0.87999257  0.97417262  0.78309365    -0.12200
C891        C  0.90348027  0.02020153  0.78730047     0.01900
C892        C  0.90466485  0.04703820  0.75127956    -0.00500
C893        C  0.87914678  0.02624506  0.71293971    -0.12200
C894        C  0.85491026  0.97989211  0.70910061     0.01800
H895        H  0.88147943  0.95464450  0.81061481     0.14700
H896        H  0.87863829  0.04632538  0.68543048     0.14700
C897        C  0.82803659  0.96085308  0.66979695     0.36400
C898        C  0.92803218  0.03852216  0.82814407     0.36300
N899        N  0.80609370  0.94558081  0.63851601    -0.44000
N900        N  0.94750240  0.05296838  0.86099320    -0.44000
C901        C  0.03994999  0.90314433  0.74878724    -0.00400
C902        C  0.01695165  0.88930127  0.70806905    -0.12200
C903        C  0.97053479  0.86500084  0.70680656     0.01900
C904        C  0.94545746  0.85468689  0.74708222    -0.00500
C905        C  0.96850704  0.86429682  0.78782871    -0.12200
C906        C  0.01499134  0.88765445  0.78907284     0.01800
H907        H  0.03515143  0.89902468  0.67674863     0.14700
H908        H  0.95026559  0.85521443  0.81912705     0.14700
C909        C  0.03574813  0.89544500  0.83246892     0.36400
C910        C  0.94998042  0.85194354  0.66332072     0.36300
N911        N  0.05211271  0.90136770  0.86735708    -0.44000
N912        N  0.93370530  0.84146397  0.62839929    -0.44000
C913        C  0.87073002  0.69541637  0.17642368    -0.00400
C914        C  0.86136941  0.68550914  0.13110544    -0.12200
C915        C  0.81805347  0.65750835  0.11746738     0.01900
C916        C  0.78381745  0.64009839  0.14967314    -0.00500
C917        C  0.79320363  0.65001634  0.19496137    -0.12200
C918        C  0.83648494  0.67791287  0.20860620     0.01800
H919        H  0.88797999  0.69888537  0.10664325     0.14700
H920        H  0.76661411  0.63662597  0.21945178     0.14700
C921        C  0.84459736  0.68979308  0.25537161     0.36400
C922        C  0.80989929  0.64522088  0.07080049     0.36300
N923        N  0.85076516  0.69945490  0.29279760    -0.44000
N924        N  0.80361988  0.63513629  0.03348114    -0.44000
C925        C  0.75424580  0.69398927  0.87142154    -0.00400
C926        C  0.76788914  0.71090833  0.91482382    -0.12200
C927        C  0.75422855  0.68291779  0.95251370     0.01900
C928        C  0.72743098  0.63656278  0.94728356    -0.00500
C929        C  0.71636956  0.61938485  0.90374400    -0.12200
C930        C  0.72882565  0.64743171  0.86613489     0.01800
H931        H  0.78736876  0.74641419  0.91966704     0.14700
H932        H  0.69563246  0.58394596  0.89918390     0.14700
C933        C  0.71406590  0.62733631  0.82268299     0.36400
C934        C  0.76749987  0.70283726  0.99624129     0.36300
N935        N  0.70189511  0.61105035  0.78798438    -0.44000
N936        N  0.77811163  0.71897101  0.03121109    -0.44000
C937        C  0.53735123  0.52090800  0.01003352    -0.00400
C938        C  0.50825964  0.51802280  0.04418876    -0.12200
C939        C  0.46317464  0.49968493  0.03594464     0.01900
C940        C  0.44664202  0.48320361  0.99295216    -0.00500
C941        C  0.47590670  0.48679297  0.95871975    -0.12200
C942        C  0.52103134  0.50598250  0.96673124     0.01800
H943        H  0.52061625  0.52926819  0.07772530     0.14700
H944        H  0.46369036  0.47591761  0.92506669     0.14700
C945        C  0.55001338  0.51222607  0.92948091     0.36400
C946        C  0.43479192  0.49730812  0.07236026     0.36300
N947        N  0.57326470  0.51770069  0.89952468    -0.44000
N948        N  0.41230931  0.49568363  0.10165508    -0.44000
C949        C  0.75429480  0.47481486  0.07148254    -0.00400
C950        C  0.74909776  0.44561216  0.03692141    -0.12200
C951        C  0.77030836  0.42063887  0.03792362     0.01900
C952        C  0.79903442  0.42512829  0.07389708    -0.00500
C953        C  0.80594559  0.45604202  0.10762677    -0.12200
C954        C  0.78408155  0.48082821  0.10662382     0.01800
H955        H  0.72595591  0.44001879  0.01014223     0.14700
H956        H  0.82802573  0.46052618  0.13508722     0.14700
C957        C  0.79327646  0.51267725  0.14170040     0.36400
C958        C  0.75862098  0.38811903  0.00290643     0.36300
N959        N  0.80083051  0.53844114  0.16961360    -0.44000
N960        N  0.74899587  0.36198959  0.97493704    -0.44000
C961        C  0.56588004  0.38145959  0.08250608    -0.00400
C962        C  0.55836964  0.35792041  0.12271824    -0.12200
C963        C  0.53591280  0.31162143  0.12353750     0.01900
C964        C  0.52020939  0.28716471  0.08302962    -0.00500
C965        C  0.52433155  0.31066598  0.04338918    -0.12200
C966        C  0.54650332  0.35710898  0.04274579     0.01800
H967        H  0.57197738  0.37570869  0.15370513     0.14700
H968        H  0.51154325  0.29283996  0.01227761     0.14700
C969        C  0.54920330  0.37844827  0.00041010     0.36400
C970        C  0.53140894  0.29092307  0.16671157     0.36300
N971        N  0.55122234  0.39537690  0.96642464    -0.44000
N972        N  0.52807085  0.27462835  0.20138481    -0.44000
C973        C  0.55888997  0.59629803  0.28008008    -0.00400
C974        C  0.58165857  0.57331475  0.28872672    -0.12200
C975        C  0.59814141  0.55867392  0.25381034     0.01900
C976        C  0.59209248  0.56687100  0.20876265    -0.00500
C977        C  0.56748375  0.58789701  0.19999093    -0.12200
C978        C  0.55084593  0.60243654  0.23489399     0.01800
H979        H  0.58837182  0.56845366  0.32306724     0.14700
H980        H  0.56268758  0.59457211  0.16559675     0.14700
C981        C  0.52894807  0.62678204  0.22308975     0.36400
C982        C  0.62460808  0.53900905  0.26535635     0.36300
N983        N  0.51155830  0.64641226  0.21348560    -0.44000
N984        N  0.64605389  0.52350341  0.27462104    -0.44000
C985        C  0.62766812  0.73509286  0.53978778    -0.00400
C986        C  0.67303560  0.76347618  0.53125389    -0.12200
C987        C  0.70421525  0.78020575  0.56626201     0.01900
C988        C  0.69041925  0.76783740  0.61119453    -0.00500
C989        C  0.64472317  0.74117399  0.61963444    -0.12200
C990        C  0.61360896  0.72503722  0.58482382     0.01800
H991        H  0.68439396  0.77157174  0.49686440     0.14700
H992        H  0.63318829  0.73125178  0.65373680     0.14700
C993        C  0.56790591  0.69505692  0.59629257     0.36400
C994        C  0.75027377  0.80762134  0.55461489     0.36300
N995        N  0.53135429  0.67090032  0.60561898    -0.44000
N996        N  0.78716044  0.82967610  0.54509597    -0.44000
C997        C  0.63280877  0.78770701  0.33658186    -0.00400
C998        C  0.61361468  0.81249986  0.32215826    -0.12200
C999        C  0.63903528  0.85793587  0.31592074     0.01900
C1000       C  0.68505193  0.87937681  0.32338540    -0.00500
C1001       C  0.70438426  0.85456786  0.33747972    -0.12200
C1002       C  0.67887522  0.80915127  0.34414667     0.01800
H1003       H  0.57818267  0.79669352  0.31740200     0.14700
H1004       H  0.73986474  0.87043642  0.34224536     0.14700
C1005       C  0.70124077  0.78586700  0.35842442     0.36400
C1006       C  0.61649909  0.88143846  0.30310359     0.36300
N1007       N  0.71933612  0.76752099  0.37016062    -0.44000
N1008       N  0.59820188  0.89999950  0.29282236    -0.44000
C1009       C  0.47615574  0.45399676  0.50381062    -0.00400
C1010       C  0.52192758  0.48323464  0.50273180    -0.12200
C1011       C  0.53880680  0.52789107  0.49310633     0.01900
C1012       C  0.50939932  0.54353406  0.48439698    -0.00500
C1013       C  0.46365748  0.51408882  0.48463312    -0.12200
C1014       C  0.44682504  0.46939588  0.49395616     0.01800
H1015       H  0.54450125  0.47145447  0.51098659     0.14700
H1016       H  0.44106990  0.52582122  0.47627031     0.14700
C1017       C  0.39963007  0.43978097  0.49154032     0.36400
C1018       C  0.58614896  0.55711445  0.49409274     0.36300
N1019       N  0.36185837  0.41597275  0.48932447    -0.44000
N1020       N  0.62406466  0.58048500  0.49495956    -0.44000
C1021       C  0.46686461  0.76101351  0.41426909    -0.00400
C1022       C  0.45155943  0.76863035  0.45489625    -0.12200
C1023       C  0.42777050  0.79117381  0.45648063     0.01900
C1024       C  0.41851930  0.80723629  0.41643339    -0.00500
C1025       C  0.43672298  0.80248452  0.37622216    -0.12200
C1026       C  0.46068215  0.77999677  0.37475569     0.01800
H1027       H  0.45624011  0.75498121  0.48568352     0.14700
H1028       H  0.43111491  0.81519872  0.34528115     0.14700
C1029       C  0.47784154  0.77666239  0.33182857     0.36400
C1030       C  0.41187903  0.79515133  0.49993153     0.36300
N1031       N  0.49138976  0.77417880  0.29723403    -0.44000
N1032       N  0.39922009  0.79805335  0.53488389    -0.44000
C1033       C  0.37135132  0.57392646  0.40549898    -0.00400
C1034       C  0.35023278  0.55978486  0.44752098    -0.12200
C1035       C  0.30407032  0.53795796  0.45191868     0.01900
C1036       C  0.27727308  0.52842013  0.41344207    -0.00500
C1037       C  0.29836377  0.53937339  0.37116753    -0.12200
C1038       C  0.34452441  0.56228299  0.36685419     0.01800
H1039       H  0.36993799  0.56763107  0.47772922     0.14700
H1040       H  0.27882459  0.53207700  0.34090279     0.14700
C1041       C  0.36282967  0.57577950  0.32239335     0.36400
C1042       C  0.28582272  0.52800470  0.49664033     0.36300
N1043       N  0.37714639  0.58669838  0.28666207    -0.44000
N1044       N  0.27152251  0.52043159  0.53262897    -0.44000
loop_ 
_geom_bond_atom_site_label_1 
_geom_bond_atom_site_label_2 
_geom_bond_distance 
_geom_bond_site_symmetry_2 
_ccdc_geom_bond_type 
Fe1          O17   2.030       .  S
Fe1           O7   2.062       .  S
Fe1          O14   2.065       .  S
Fe1           O6   2.021       .  S
Fe1          O12   1.971       .  S
Fe2           O5   2.059       .  S
Fe2           O9   2.071       .  S
Fe2          O13   2.080       .  S
Fe2          O18   2.083       .  S
Fe2          O12   1.964       .  S
Fe3          O21   2.079       .  S
Fe3           O8   2.074       .  S
Fe3          O15   2.080       .  S
Fe3           O4   2.065       .  S
Fe3          O12   1.970       .  S
O4           C11   1.277       .  A
O5           C19   1.268       .  A
O6           C11   1.268       .  A
O7           C10   1.263       .  A
O8           C20   1.270       .  A
O9           C22   1.278       .  A
C10          O15   1.266       .  A
C10         C973   1.498       .  S
C11         C997   1.465       .  S
O13          C16   1.266       .  A
O14          C16   1.262       .  A
C16         C985   1.497       .  S
O17          C22   1.270       .  A
O18          C20   1.276       .  A
C19          O21   1.273       .  A
C19        C1033   1.498       .  S
C20        C1021   1.503       .  S
C22        C1012   1.458       .  S
Fe23         O39   2.027       .  S
Fe23         O29   2.063       .  S
Fe23         O36   2.060       .  S
Fe23         O28   2.024       .  S
Fe23         O34   1.965       .  S
Fe24         O27   2.053       .  S
Fe24         O31   2.085       .  S
Fe24         O35   2.077   1_554  S
Fe24         O40   2.090       .  S
Fe24         O34   1.961       .  S
Fe25         O43   2.079       .  S
Fe25         O30   2.072       .  S
Fe25         O37   2.080       .  S
Fe25         O26   2.072       .  S
Fe25         O34   1.966       .  S
O26          C33   1.276       .  A
O27          C41   1.265       .  A
O28          C33   1.269       .  A
O29          C32   1.263       .  A
O30          C42   1.270       .  A
O31          C44   1.281       .  A
C32          O37   1.266       .  A
C32         C976   1.494       .  S
C33         C916   1.448       .  S
O35          C38   1.265       .  A
O36          C38   1.261   1_554  A
C38         C928   1.492       .  S
O39          C44   1.271       .  A
O40          C42   1.278       .  A
C41          O43   1.274       .  A
C41         C961   1.496       .  S
C42         C949   1.497       .  S
C44         C937   1.465       .  S
Fe45         O61   2.036       .  S
Fe45         O51   2.052       .  S
Fe45         O58   2.064       .  S
Fe45         O50   2.031       .  S
Fe45         O56   1.962       .  S
Fe46         O49   2.046       .  S
Fe46         O53   2.087       .  S
Fe46         O57   2.073       .  S
Fe46         O62   2.091       .  S
Fe46         O56   1.961       .  S
Fe47         O65   2.089       .  S
Fe47         O52   2.070       .  S
Fe47         O59   2.092       .  S
Fe47         O48   2.074       .  S
Fe47         O56   1.966       .  S
O48          C55   1.280       .  A
O49          C63   1.267       .  A
O50          C55   1.273       .  A
O51          C54   1.261       .  A
O52          C64   1.269       .  A
O53          C66   1.281       .  A
C54          O59   1.268       .  A
C54         C988   1.504       .  S
C55         C877   1.462       .  S
O57          C60   1.264       .  A
O58          C60   1.262       .  A
C60         C925   1.497       .  S
O61          C66   1.272       .  A
O62          C64   1.276       .  A
C63          O65   1.276       .  A
C63         C889   1.495       .  S
C64         C904   1.505       .  S
C66         C865   1.467       .  S
Fe67         O83   2.078       .  S
Fe67         O73   2.037       .  S
Fe67         O80   2.045       .  S
Fe67         O72   2.066       .  S
Fe67         O78   1.962       .  S
Fe68         O71   2.086       .  S
Fe68         O75   2.079       .  S
Fe68         O79   2.075       .  S
Fe68         O84   2.058       .  S
Fe68         O78   1.962       .  S
Fe69         O87   2.059       .  S
Fe69         O74   2.088       .  S
Fe69         O81   2.077       .  S
Fe69         O70   2.077   1_556  S
Fe69         O78   1.968       .  S
O70          C77   1.265       .  A
O71          C85   1.277       .  A
O72          C77   1.263   1_556  A
O73          C76   1.275       .  A
O74          C86   1.274       .  A
O75          C88   1.265       .  A
C76          O81   1.279       .  A
C76         C940   1.466       .  S
C77         C817   1.499       .  S
O79          C82   1.280       .  A
O80          C82   1.275       .  A
C82         C832   1.464       .  S
O83          C88   1.264       .  A
O84          C86   1.268       .  A
C85          O87   1.267       .  A
C85         C844   1.498       .  S
C86         C853   1.503       .  S
C88         C805   1.500       .  S
Fe89        O105   2.074       .  S
Fe89         O95   2.039       .  S
Fe89        O102   2.034       .  S
Fe89         O94   2.059       .  S
Fe89        O100   1.964       .  S
Fe90         O93   2.084       .  S
Fe90         O97   2.084       .  S
Fe90        O101   2.074       .  S
Fe90        O106   2.062       .  S
Fe90        O100   1.965       .  S
Fe91        O109   2.062       .  S
Fe91         O96   2.074       .  S
Fe91        O103   2.067       .  S
Fe91         O92   2.071       .  S
Fe91        O100   1.965       .  S
O92          C99   1.263       .  A
O93         C107   1.275       .  A
O94          C99   1.262       .  A
O95          C98   1.274       .  A
O96         C108   1.272       .  A
O97         C110   1.266       .  A
C98         O103   1.277       .  A
C98        C1009   1.458       .  S
C99         C769   1.493       .  S
O101        C104   1.278       .  A
O102        C104   1.271       .  A
C104        C757   1.450       .  S
O105        C110   1.265       .  A
O106        C108   1.267       .  A
C107        O109   1.270       .  A
C107        C781   1.500       .  S
C108        C793   1.495       .  S
C110        C808   1.513       .  S
Fe111       O127   2.066       .  S
Fe111       O117   2.032       .  S
Fe111       O124   2.032       .  S
Fe111       O116   2.064       .  S
Fe111       O122   1.970       .  S
Fe112       O115   2.080       .  S
Fe112       O119   2.075       .  S
Fe112       O123   2.069       .  S
Fe112       O128   2.059       .  S
Fe112       O122   1.969       .  S
Fe113       O131   2.057       .  S
Fe113       O118   2.075       .  S
Fe113       O125   2.067       .  S
Fe113       O114   2.068       .  S
Fe113       O122   1.967       .  S
O114        C121   1.263       .  A
O115        C129   1.272       .  A
O116        C121   1.263       .  A
O117        C120   1.271       .  A
O118        C130   1.272       .  A
O119        C132   1.266       .  A
C120        O125   1.277       .  A
C120        C721   1.464       .  S
C121        C772   1.495       .  S
O123        C126   1.276       .  A
O124        C126   1.271       .  A
C126        C709   1.468       .  S
O127        C132   1.264       .  A
O128        C130   1.269       .  A
C129        O131   1.268       .  A
C129        C748   1.499       .  S
C130        C736   1.493       .  S
C132        C820   1.496       .  S
Fe133       O149   2.034       .  S
Fe133       O139   2.067       .  S
Fe133       O146   2.068       .  S
Fe133       O138   2.033       .  S
Fe133       O144   1.967       .  S
Fe134       O137   2.063       .  S
Fe134       O141   2.071       .  S
Fe134       O145   2.082   1_554  S
Fe134       O150   2.086       .  S
Fe134       O144   1.967       .  S
Fe135       O153   2.081       .  S
Fe135       O140   2.049       .  S
Fe135       O147   2.065       .  S
Fe135       O136   2.071       .  S
Fe135       O144   1.964       .  S
O136        C143   1.278       .  A
O137        C151   1.269       .  A
O138        C143   1.272       .  A
O139        C142   1.264       .  A
O140        C152   1.264       .  A
O141        C154   1.278       .  A
C142        O147   1.263       .  A
C142        C685   1.496       .  S
C143        C712   1.468       .  S
O145        C148   1.267       .  A
O146        C148   1.264   1_554  A
C148        C676   1.503       .  S
O149        C154   1.272       .  A
O150        C152   1.275       .  A
C151        O153   1.273       .  A
C151        C700   1.498       .  S
C152        C964   1.498       .  S
C154        C661   1.463       .  S
Fe155       O171   2.033       .  S
Fe155       O161   2.061       .  S
Fe155       O168   2.081   1_545  S
Fe155       O160   2.026   1_545  S
Fe155       O166   1.965       .  S
Fe156       O159   2.045       .  S
Fe156       O163   2.079       .  S
Fe156       O167   2.070   1_545  S
Fe156       O172   2.087   1_545  S
Fe156       O166   1.960       .  S
Fe157       O175   2.094       .  S
Fe157       O162   2.073   1_545  S
Fe157       O169   2.089       .  S
Fe157       O158   2.068   1_545  S
Fe157       O166   1.972       .  S
O158        C165   1.278       .  A
O159        C173   1.265       .  A
O160        C165   1.274       .  A
O161        C164   1.262       .  A
O162        C174   1.269       .  A
O163        C176   1.278       .  A
C164        O169   1.268       .  A
C164        C673   1.501       .  S
C165        C637   1.466       .  S
O167        C170   1.264       .  A
O168        C170   1.265       .  A
C170        C628   1.498       .  S
O171        C176   1.271       .  A
O172        C174   1.275       .  A
C173        O175   1.276       .  A
C173        C649   1.498       .  S
C174        C901   1.505       .  S
C176        C760   1.452       .  S
Fe177       O193   2.019       .  S
Fe177       O183   2.071       .  S
Fe177       O190   2.065       .  S
Fe177       O182   2.024       .  S
Fe177       O188   1.964       .  S
Fe178       O181   2.062       .  S
Fe178       O185   2.092       .  S
Fe178       O189   2.085       .  S
Fe178       O194   2.107       .  S
Fe178       O188   1.965       .  S
Fe179       O197   2.092       .  S
Fe179       O184   2.032       .  S
Fe179       O191   2.064       .  S
Fe179       O180   2.085       .  S
Fe179       O188   1.958       .  S
O180        C187   1.280       .  A
O181        C195   1.267       .  A
O182        C187   1.270       .  A
O183        C186   1.264       .  A
O184        C196   1.263       .  A
O185        C198   1.283       .  A
C186        O191   1.262       .  A
C186        C688   1.489       .  S
C187        C592   1.465       .  S
O189        C192   1.268       .  A
O190        C192   1.263       .  A
C192        C625   1.500       .  S
O193        C198   1.270       .  A
O194        C196   1.279       .  A
C195        O197   1.276       .  A
C195       C1024   1.507       .  S
C196        C613   1.496       .  S
C198        C601   1.463       .  S
Fe199       O215   2.073       .  S
Fe199       O205   2.039       .  S
Fe199       O212   2.029       .  S
Fe199       O204   2.077       .  S
Fe199       O210   1.968       .  S
Fe200       O203   2.091       .  S
Fe200       O207   2.071   1_556  S
Fe200       O211   2.076       .  S
Fe200       O216   2.054       .  S
Fe200       O210   1.965       .  S
Fe201       O219   2.051       .  S
Fe201       O206   2.092       .  S
Fe201       O213   2.084       .  S
Fe201       O202   2.067       .  S
Fe201       O210   1.967       .  S
O202        C209   1.263       .  A
O203        C217   1.276       .  A
O204        C209   1.265       .  A
O205        C208   1.272       .  A
O206        C218   1.276       .  A
O207        C220   1.265       .  A
C208        O213   1.280       .  A
C208        C868   1.465       .  S
C209        C565   1.492       .  S
O211        C214   1.279       .  A
O212        C214   1.271       .  A
C214        C664   1.461       .  S
O215        C220   1.265   1_556  A
O216        C218   1.265       .  A
C217        O219   1.265       .  A
C217        C841   1.500       .  S
C218        C577   1.502       .  S
C220        C553   1.499       .  S
Fe221       O237   2.071       .  S
Fe221       O227   2.031       .  S
Fe221       O234   2.027   1_545  S
Fe221       O226   2.065   1_545  S
Fe221       O232   1.966       .  S
Fe222       O225   2.065   1_565  S
Fe222       O229   2.064   1_565  S
Fe222       O233   2.061       .  S
Fe222       O238   2.055       .  S
Fe222       O232   1.964   1_565  S
Fe223       O241   2.070       .  S
Fe223       O228   2.093   1_545  S
Fe223       O235   2.078       .  S
Fe223       O224   2.080   1_545  S
Fe223       O232   1.966       .  S
O224        C231   1.266       .  A
O225        C239   1.271       .  A
O226        C231   1.263       .  A
O227        C230   1.272       .  A
O228        C240   1.275       .  A
O229        C242   1.262       .  A
C230        O235   1.280       .  A
C230        C517   1.465       .  S
C231        C556   1.497       .  S
O233        C236   1.277       .  A
O234        C236   1.271       .  A
C236       C1000   1.465       .  S
O237        C242   1.264       .  A
O238        C240   1.265       .  A
C239        O241   1.271       .  A
C239        C745   1.494       .  S
C240        C541   1.504       .  S
C242        C529   1.494       .  S
Fe243       O259   2.065       .  S
Fe243       O249   2.026       .  S
Fe243       O256   2.029       .  S
Fe243       O248   2.054       .  S
Fe243       O254   1.961       .  S
Fe244       O247   2.080       .  S
Fe244       O251   2.071       .  S
Fe244       O255   2.079       .  S
Fe244       O260   2.050       .  S
Fe244       O254   1.962       .  S
Fe245       O263   2.069       .  S
Fe245       O250   2.088       .  S
Fe245       O257   2.080       .  S
Fe245       O246   2.087       .  S
Fe245       O254   1.964       .  S
O246        C253   1.266       .  A
O247        C261   1.274       .  A
O248        C253   1.260       .  A
O249        C252   1.273       .  A
O250        C262   1.276       .  A
O251        C264   1.263       .  A
C252        O257   1.280       .  A
C252        C496   1.472       .  S
C253        C568   1.503       .  S
O255        C258   1.279       .  A
O256        C258   1.272       .  A
C258        C604   1.463       .  S
O259        C264   1.263       .  A
O260        C262   1.265       .  A
C261        O263   1.269       .  A
C261        C505   1.499       .  S
C262        C796   1.497       .  S
C264        C532   1.495       .  S
Fe265       O281   2.027       .  S
Fe265       O271   2.067       .  S
Fe265       O278   2.063       .  S
Fe265       O270   2.019       .  S
Fe265       O276   1.954       .  S
Fe266       O269   2.058       .  S
Fe266       O273   2.080       .  S
Fe266       O277   2.077       .  S
Fe266       O282   2.087       .  S
Fe266       O276   1.956       .  S
Fe267       O285   2.080       .  S
Fe267       O272   2.054       .  S
Fe267       O279   2.088       .  S
Fe267       O268   2.089       .  S
Fe267       O276   1.951       .  S
O268        C275   1.282       .  A
O269        C283   1.267       .  A
O270        C275   1.273       .  A
O271        C274   1.262       .  A
O272        C284   1.268       .  A
O273        C286   1.281       .  A
C274        O279   1.264       .  A
C274        C481   1.493       .  S
C275        C724   1.470       .  S
O277        C280   1.265       .  A
O278        C280   1.262       .  A
C280        C469   1.491       .  S
O281        C286   1.274       .  A
O282        C284   1.275       .  A
C283        O285   1.276       .  A
C283        C616   1.488       .  S
C284       C1036   1.501       .  S
C286        C460   1.458       .  S
Fe287       O303   2.022       .  S
Fe287       O293   2.054       .  S
Fe287       O300   2.053       .  S
Fe287       O292   2.016       .  S
Fe287       O298   1.961       .  S
Fe288       O291   2.049       .  S
Fe288       O295   2.085   1_554  S
Fe288       O299   2.076   1_554  S
Fe288       O304   2.081       .  S
Fe288       O298   1.956       .  S
Fe289       O307   2.108       .  S
Fe289       O294   2.064       .  S
Fe289       O301   2.097       .  S
Fe289       O290   2.095       .  S
Fe289       O298   1.966       .  S
O290        C297   1.282       .  A
O291        C305   1.266       .  A
O292        C297   1.269       .  A
O293        C296   1.262       .  A
O294        C306   1.270       .  A
O295        C308   1.281   1_556  A
C296        O301   1.269       .  A
C296        C484   1.499       .  S
C297        C520   1.463       .  S
O299        C302   1.263       .  A
O300        C302   1.260   1_554  A
C302        C436   1.493       .  S
O303        C308   1.272       .  A
O304        C306   1.275       .  A
C305        O307   1.278       .  A
C305        C952   1.506       .  S
C306        C697   1.501       .  S
C308        C448   1.469       .  S
Fe309       O325   2.039   1_655  S
Fe309       O315   2.059   1_655  S
Fe309       O322   2.065       .  S
Fe309       O314   2.031       .  S
Fe309       O320   1.964       .  S
Fe310       O313   2.057   1_655  S
Fe310       O317   2.073   1_655  S
Fe310       O321   2.066       .  S
Fe310       O326   2.071       .  S
Fe310       O320   1.963       .  S
Fe311       O329   2.081   1_655  S
Fe311       O316   2.060       .  S
Fe311       O323   2.081   1_655  S
Fe311       O312   2.074       .  S
Fe311       O320   1.963       .  S
O312        C319   1.278       .  A
O313        C327   1.267       .  A
O314        C319   1.272       .  A
O315        C318   1.262       .  A
O316        C328   1.267       .  A
O317        C330   1.277       .  A
C318        O323   1.266       .  A
C318        C472   1.496       .  S
C319        C493   1.472       .  S
O321        C324   1.263       .  A
O322        C324   1.263       .  A
C324        C433   1.488       .  S
O325        C330   1.271       .  A
O326        C328   1.271       .  A
C327        O329   1.277       .  A
C327        C652   1.489       .  S
C328        C892   1.490       .  S
C330        C829   1.465       .  S
Fe331       O347   2.067       .  S
Fe331       O337   2.025       .  S
Fe331       O344   2.027       .  S
Fe331       O336   2.061       .  S
Fe331       O342   1.969       .  S
Fe332       O335   2.083       .  S
Fe332       O339   2.081   1_556  S
Fe332       O343   2.074       .  S
Fe332       O348   2.064       .  S
Fe332       O342   1.962       .  S
Fe333       O351   2.062       .  S
Fe333       O338   2.078       .  S
Fe333       O345   2.067       .  S
Fe333       O334   2.075       .  S
Fe333       O342   1.963       .  S
O334        C341   1.265       .  A
O335        C349   1.275       .  A
O336        C341   1.262       .  A
O337        C340   1.272       .  A
O338        C350   1.273       .  A
O339        C352   1.266       .  A
C340        O345   1.277       .  A
C340        C640   1.466       .  S
C341        C421   1.495       .  S
O343        C346   1.278       .  A
O344        C346   1.271       .  A
C346        C445   1.468       .  S
O347        C352   1.263   1_556  A
O348        C350   1.269       .  A
C349        O351   1.268       .  A
C349        C580   1.497       .  S
C350        C856   1.499       .  S
C352        C409   1.502       .  S
Fe353       O369   2.070   1_655  S
Fe353       O359   2.029   1_655  S
Fe353       O366   2.025       .  S
Fe353       O358   2.071       .  S
Fe353       O364   1.963       .  S
Fe354       O357   2.083   1_655  S
Fe354       O361   2.077   1_655  S
Fe354       O365   2.074       .  S
Fe354       O370   2.063       .  S
Fe354       O364   1.965       .  S
Fe355       O373   2.047   1_655  S
Fe355       O360   2.085       .  S
Fe355       O367   2.079   1_655  S
Fe355       O356   2.062       .  S
Fe355       O364   1.960       .  S
O356        C363   1.262       .  A
O357        C371   1.274       .  A
O358        C363   1.263       .  A
O359        C362   1.272       .  A
O360        C372   1.275       .  A
O361        C374   1.265       .  A
C362        O367   1.280       .  A
C362        C589   1.464       .  S
C363        C397   1.489       .  S
O365        C368   1.278       .  A
O366        C368   1.271       .  A
C368        C913   1.448       .  S
O369        C374   1.264       .  A
O370        C372   1.268       .  A
C371        O373   1.266       .  A
C371        C733   1.496       .  S
C372        C544   1.499       .  S
C374        C412   1.495       .  S
Fe375       O391   2.067       .  S
Fe375       O381   2.036       .  S
Fe375       O388   2.035       .  S
Fe375       O380   2.059       .  S
Fe375       O386   1.965       .  S
Fe376       O379   2.068       .  S
Fe376       O383   2.066       .  S
Fe376       O387   2.063       .  S
Fe376       O392   2.057       .  S
Fe376       O386   1.962       .  S
Fe377       O395   2.071       .  S
Fe377       O382   2.088       .  S
Fe377       O389   2.070       .  S
Fe377       O378   2.079       .  S
Fe377       O386   1.965       .  S
O378        C385   1.266       .  A
O379        C393   1.271       .  A
O380        C385   1.262       .  A
O381        C384   1.273       .  A
O382        C394   1.275       .  A
O383        C396   1.262       .  A
C384        O389   1.279       .  A
C384        C880   1.463       .  S
C385        C424   1.497       .  S
O387        C390   1.276       .  A
O388        C390   1.272       .  A
C390        C457   1.453       .  S
O391        C396   1.264       .  A
O392        C394   1.266       .  A
C393        O395   1.270       .  A
C393        C784   1.496       .  S
C394        C508   1.500       .  S
C396        C400   1.498       .  S
C397        C398   1.404       .  A
C397        C402   1.413       .  A
C398        C399   1.406       .  A
C398        H403   1.085       .  S
C399        C400   1.420       .  A
C399        C406   1.444       .  S
C400        C401   1.408       .  A
C401        C402   1.404       .  A
C401        H404   1.085       .  S
C402        C405   1.445       .  S
C405        N407   1.157       .  T
C406        N408   1.157       .  T
C409        C410   1.410       .  A
C409        C414   1.417       .  A
C410        C411   1.408       .  A
C410        H415   1.085       .  S
C411        C412   1.414       .  A
C411        C418   1.444       .  S
C412        C413   1.406       .  A
C413        C414   1.408       .  A
C413        H416   1.085       .  S
C414        C417   1.443       .  S
C417        N419   1.157       .  T
C418        N420   1.157       .  T
C421        C422   1.407   1_455  A
C421        C426   1.415       .  A
C422        C423   1.406       .  A
C422        H427   1.085       .  S
C423        C424   1.415       .  A
C423        C430   1.444       .  S
C424        C425   1.409   1_655  A
C425        C426   1.406       .  A
C425        H428   1.085       .  S
C426        C429   1.444       .  S
C429        N431   1.157       .  T
C430        N432   1.157       .  T
C433        C434   1.407       .  A
C433        C438   1.412       .  A
C434        C435   1.406       .  A
C434        H439   1.085       .  S
C435        C436   1.415       .  A
C435        C442   1.444       .  S
C436        C437   1.408       .  A
C437        C438   1.402       .  A
C437        H440   1.085       .  S
C438        C441   1.445       .  S
C441        N443   1.157       .  T
C442        N444   1.157       .  T
C445        C446   1.408   1_455  A
C445        C450   1.408   1_556  A
C446        C447   1.394       .  A
C446        H451   1.086       .  S
C447        C448   1.408   1_556  A
C447        C454   1.445       .  S
C448        C449   1.407       .  A
C449        C450   1.390   1_655  A
C449        H452   1.085   1_655  S
C450        C453   1.445       .  S
C453        N455   1.157       .  T
C454        N456   1.158       .  T
C457        C458   1.396       .  A
C457        C462   1.411       .  A
C458        C459   1.390       .  A
C458        H463   1.086       .  S
C459        C460   1.413   1_655  A
C459        C466   1.442       .  S
C460        C461   1.398       .  A
C461        C462   1.390   1_455  A
C461        H464   1.086       .  S
C462        C465   1.444       .  S
C465        N467   1.157       .  T
C466        N468   1.156       .  T
C469        C470   1.407       .  A
C469        C474   1.412       .  A
C470        C471   1.406       .  A
C470        H475   1.085       .  S
C471        C472   1.415       .  A
C471        C478   1.444       .  S
C472        C473   1.409       .  A
C473        C474   1.405       .  A
C473        H476   1.085       .  S
C474        C477   1.444       .  S
C477        N479   1.157       .  T
C478        N480   1.157       .  T
C481        C482   1.409       .  A
C481        C486   1.412       .  A
C482        C483   1.416   1_455  A
C482        H487   1.082       .  S
C483        C484   1.415       .  A
C483        C490   1.442       .  S
C484        C485   1.407       .  A
C485        C486   1.399   1_655  A
C485        H488   1.085       .  S
C486        C489   1.446       .  S
C489        N491   1.157       .  T
C490        N492   1.157       .  T
C493        C494   1.408       .  A
C493        C498   1.411       .  A
C494        C495   1.392       .  A
C494        H499   1.085       .  S
C495        C496   1.410       .  A
C495        C502   1.445       .  S
C496        C497   1.408       .  A
C497        C498   1.392       .  A
C497        H500   1.085       .  S
C498        C501   1.445       .  S
C501        N503   1.157       .  T
C502        N504   1.157       .  T
C505        C506   1.403       .  A
C505        C510   1.421       .  A
C506        C507   1.401       .  A
C506        H511   1.084       .  S
C507        C508   1.423       .  A
C507        C514   1.446       .  S
C508        C509   1.405       .  A
C509        C510   1.406       .  A
C509        H512   1.084       .  S
C510        C513   1.444       .  S
C513        N515   1.157       .  T
C514        N516   1.158       .  T
C517        C518   1.402       .  A
C517        C522   1.413       .  A
C518        C519   1.391       .  A
C518        H523   1.086       .  S
C519        C520   1.412       .  A
C519        C526   1.445       .  S
C520        C521   1.401       .  A
C521        C522   1.394       .  A
C521        H524   1.086       .  S
C522        C525   1.445       .  S
C525        N527   1.157       .  T
C526        N528   1.157       .  T
C529        C530   1.406       .  A
C529        C534   1.416       .  A
C530        C531   1.407       .  A
C530        H535   1.084       .  S
C531        C532   1.416       .  A
C531        C538   1.444       .  S
C532        C533   1.407       .  A
C533        C534   1.404       .  A
C533        H536   1.084       .  S
C534        C537   1.445       .  S
C537        N539   1.157       .  T
C538        N540   1.157       .  T
C541        C542   1.406       .  A
C541        C546   1.425       .  A
C542        C543   1.406       .  A
C542        H547   1.084       .  S
C543        C544   1.420       .  A
C543        C550   1.445       .  S
C544        C545   1.403       .  A
C545        C546   1.403       .  A
C545        H548   1.084       .  S
C546        C549   1.445       .  S
C549        N551   1.158       .  T
C550        N552   1.157       .  T
C553        C554   1.408       .  A
C553        C558   1.417       .  A
C554        C555   1.407       .  A
C554        H559   1.085       .  S
C555        C556   1.415       .  A
C555        C562   1.443       .  S
C556        C557   1.407       .  A
C557        C558   1.407       .  A
C557        H560   1.086       .  S
C558        C561   1.444       .  S
C561        N563   1.157       .  T
C562        N564   1.157       .  T
C565        C566   1.403       .  A
C565        C570   1.413   1_565  A
C566        C567   1.404       .  A
C566        H571   1.085       .  S
C567        C568   1.421   1_565  A
C567        C574   1.445       .  S
C568        C569   1.410       .  A
C569        C570   1.410       .  A
C569        H572   1.084       .  S
C570        C573   1.444       .  S
C573        N575   1.157       .  T
C574        N576   1.158       .  T
C577        C578   1.405       .  A
C577        C582   1.425       .  A
C578        C579   1.406       .  A
C578        H583   1.084       .  S
C579        C580   1.421       .  A
C579        C586   1.444       .  S
C580        C581   1.402       .  A
C581        C582   1.401       .  A
C581        H584   1.084       .  S
C582        C585   1.445   1_556  S
C585        N587   1.157       .  T
C586        N588   1.157       .  T
C589        C590   1.402       .  A
C589        C594   1.411       .  A
C590        C591   1.392       .  A
C590        H595   1.086       .  S
C591        C592   1.411       .  A
C591        C598   1.445       .  S
C592        C593   1.403       .  A
C593        C594   1.394       .  A
C593        H596   1.086       .  S
C594        C597   1.445       .  S
C597        N599   1.157       .  T
C598        N600   1.157       .  T
C601        C602   1.407   1_565  A
C601        C606   1.405       .  A
C602        C603   1.393       .  A
C602        H607   1.085       .  S
C603        C604   1.406       .  A
C603        C610   1.445       .  S
C604        C605   1.407       .  A
C605        C606   1.393   1_545  A
C605        H608   1.085       .  S
C606        C609   1.445       .  S
C609        N611   1.157       .  T
C610        N612   1.157       .  T
C613        C614   1.405       .  A
C613        C618   1.426       .  A
C614        C615   1.410       .  A
C614        H619   1.084       .  S
C615        C616   1.419       .  A
C615        C622   1.444       .  S
C616        C617   1.397       .  A
C617        C618   1.395       .  A
C617        H620   1.085       .  S
C618        C621   1.447       .  S
C621        N623   1.158       .  T
C622        N624   1.157       .  T
C625        C626   1.407       .  A
C625        C630   1.417       .  A
C626        C627   1.410       .  A
C626        H631   1.085       .  S
C627        C628   1.416       .  A
C627        C634   1.442       .  S
C628        C629   1.406       .  A
C629        C630   1.406       .  A
C629        H632   1.085       .  S
C630        C633   1.444       .  S
C633        N635   1.157       .  T
C634        N636   1.157       .  T
C637        C638   1.404       .  A
C637        C642   1.410       .  A
C638        C639   1.387       .  A
C638        H643   1.088       .  S
C639        C640   1.409       .  A
C639        C646   1.445       .  S
C640        C641   1.407       .  A
C641        C642   1.391       .  A
C641        H644   1.087       .  S
C642        C645   1.445       .  S
C645        N647   1.157       .  T
C646        N648   1.157       .  T
C649        C650   1.407       .  A
C649        C654   1.425       .  A
C650        C651   1.409       .  A
C650        H655   1.084       .  S
C651        C652   1.419       .  A
C651        C658   1.445       .  S
C652        C653   1.398       .  A
C653        C654   1.396       .  A
C653        H656   1.085       .  S
C654        C657   1.446       .  S
C657        N659   1.157       .  T
C658        N660   1.158       .  T
C661        C662   1.403       .  A
C661        C666   1.411   1_545  A
C662        C663   1.393   1_554  A
C662        H667   1.085       .  S
C663        C664   1.410   1_545  A
C663        C670   1.445       .  S
C664        C665   1.402       .  A
C665        C666   1.392   1_556  A
C665        H668   1.085       .  S
C666        C669   1.445       .  S
C669        N671   1.157       .  T
C670        N672   1.157       .  T
C673        C674   1.408       .  A
C673        C678   1.416       .  A
C674        C675   1.408       .  A
C674        H679   1.085       .  S
C675        C676   1.417       .  A
C675        C682   1.444       .  S
C676        C677   1.410       .  A
C677        C678   1.409       .  A
C677        H680   1.085       .  S
C678        C681   1.443       .  S
C681        N683   1.157       .  T
C682        N684   1.157       .  T
C685        C686   1.408   1_545  A
C685        C690   1.419       .  A
C686        C687   1.405       .  A
C686        H691   1.085       .  S
C687        C688   1.414       .  A
C687        C694   1.444       .  S
C688        C689   1.404   1_565  A
C689        C690   1.405       .  A
C689        H692   1.085       .  S
C690        C693   1.444       .  S
C693        N695   1.157       .  T
C694        N696   1.157       .  T
C697        C698   1.413       .  A
C697        C702   1.415       .  A
C698        C699   1.405       .  A
C698        H703   1.085       .  S
C699        C700   1.414       .  A
C699        C706   1.444       .  S
C700        C701   1.410       .  A
C701        C702   1.402       .  A
C701        H704   1.085       .  S
C702        C705   1.444   1_554  S
C705        N707   1.157       .  T
C706        N708   1.158       .  T
C709        C710   1.407       .  A
C709        C714   1.409       .  A
C710        C711   1.392       .  A
C710        H715   1.084       .  S
C711        C712   1.409       .  A
C711        C718   1.445       .  S
C712        C713   1.406       .  A
C713        C714   1.392       .  A
C713        H716   1.084       .  S
C714        C717   1.445       .  S
C717        N719   1.157       .  T
C718        N720   1.157       .  T
C721        C722   1.405       .  A
C721        C726   1.406       .  A
C722        C723   1.392       .  A
C722        H727   1.085       .  S
C723        C724   1.411       .  A
C723        C730   1.445       .  S
C724        C725   1.408       .  A
C725        C726   1.391       .  A
C725        H728   1.085       .  S
C726        C729   1.445       .  S
C729        N731   1.157       .  T
C730        N732   1.157       .  T
C733        C734   1.412       .  A
C733        C738   1.413       .  A
C734        C735   1.400   1_565  A
C734        H739   1.085       .  S
C735        C736   1.413       .  A
C735        C742   1.445       .  S
C736        C737   1.411       .  A
C737        C738   1.402   1_545  A
C737        H740   1.085       .  S
C738        C741   1.444       .  S
C741        N743   1.157       .  T
C742        N744   1.158       .  T
C745        C746   1.410       .  A
C745        C750   1.415       .  A
C746        C747   1.404   1_655  A
C746        H751   1.085       .  S
C747        C748   1.415       .  A
C747        C754   1.443       .  S
C748        C749   1.411       .  A
C749        C750   1.400   1_455  A
C749        H752   1.084       .  S
C750        C753   1.445       .  S
C753        N755   1.158       .  T
C754        N756   1.157       .  T
C757        C758   1.394       .  A
C757        C762   1.412       .  A
C758        C759   1.392       .  A
C758        H763   1.085       .  S
C759        C760   1.411       .  A
C759        C766   1.445       .  S
C760        C761   1.396       .  A
C761        C762   1.394       .  A
C761        H764   1.085       .  S
C762        C765   1.446       .  S
C765        N767   1.157       .  T
C766        N768   1.157       .  T
C769        C770   1.406       .  A
C769        C774   1.415       .  A
C770        C771   1.404       .  A
C770        H775   1.085       .  S
C771        C772   1.416       .  A
C771        C778   1.444       .  S
C772        C773   1.407       .  A
C773        C774   1.405       .  A
C773        H776   1.085       .  S
C774        C777   1.444       .  S
C777        N779   1.157       .  T
C778        N780   1.157       .  T
C781        C782   1.412       .  A
C781        C786   1.415       .  A
C782        C783   1.402       .  A
C782        H787   1.084       .  S
C783        C784   1.414       .  A
C783        C790   1.445       .  S
C784        C785   1.410       .  A
C785        C786   1.404       .  A
C785        H788   1.084       .  S
C786        C789   1.443       .  S
C789        N791   1.157       .  T
C790        N792   1.158       .  T
C793        C794   1.403       .  A
C793        C798   1.420       .  A
C794        C795   1.402       .  A
C794        H799   1.084       .  S
C795        C796   1.423       .  A
C795        C802   1.446       .  S
C796        C797   1.403       .  A
C797        C798   1.403       .  A
C797        H800   1.084       .  S
C798        C801   1.444       .  S
C801        N803   1.157       .  T
C802        N804   1.158       .  T
C805        C806   1.406       .  A
C805        C810   1.413       .  A
C806        C807   1.413       .  A
C806        H811   1.085       .  S
C807        C808   1.422       .  A
C807        C814   1.443       .  S
C808        C809   1.411       .  A
C809        C810   1.408       .  A
C809        H812   1.084       .  S
C810        C813   1.445       .  S
C813        N815   1.157       .  T
C814        N816   1.157       .  T
C817        C818   1.408       .  A
C817        C822   1.417       .  A
C818        C819   1.405       .  A
C818        H823   1.085       .  S
C819        C820   1.415       .  A
C819        C826   1.444       .  S
C820        C821   1.408       .  A
C821        C822   1.408       .  A
C821        H824   1.085       .  S
C822        C825   1.444       .  S
C825        N827   1.157       .  T
C826        N828   1.157       .  T
C829        C830   1.399       .  A
C829        C834   1.414       .  A
C830        C831   1.393       .  A
C830        H835   1.086       .  S
C831        C832   1.413       .  A
C831        C838   1.443       .  S
C832        C833   1.398       .  A
C833        C834   1.394       .  A
C833        H836   1.086       .  S
C834        C837   1.443       .  S
C837        N839   1.156       .  T
C838        N840   1.156       .  T
C841        C842   1.404       .  A
C841        C846   1.425       .  A
C842        C843   1.405       .  A
C842        H847   1.084       .  S
C843        C844   1.423       .  A
C843        C850   1.445   1_556  S
C844        C845   1.402       .  A
C845        C846   1.401       .  A
C845        H848   1.085       .  S
C846        C849   1.445       .  S
C849        N851   1.157       .  T
C850        N852   1.158       .  T
C853        C854   1.413       .  A
C853        C858   1.414       .  A
C854        C855   1.402       .  A
C854        H859   1.084       .  S
C855        C856   1.414       .  A
C855        C862   1.445       .  S
C856        C857   1.412       .  A
C857        C858   1.406       .  A
C857        H860   1.085       .  S
C858        C861   1.443   1_556  S
C861        N863   1.157       .  T
C862        N864   1.158       .  T
C865        C866   1.397       .  A
C865        C870   1.416       .  A
C866        C867   1.394       .  A
C866        H871   1.085       .  S
C867        C868   1.414       .  A
C867        C874   1.443       .  S
C868        C869   1.397       .  A
C869        C870   1.395       .  A
C869        H872   1.085       .  S
C870        C873   1.444       .  S
C873        N875   1.157       .  T
C874        N876   1.156       .  T
C877        C878   1.403       .  A
C877        C882   1.410       .  A
C878        C879   1.392       .  A
C878        H883   1.085       .  S
C879        C880   1.410       .  A
C879        C886   1.445       .  S
C880        C881   1.403       .  A
C881        C882   1.392       .  A
C881        H884   1.086       .  S
C882        C885   1.445       .  S
C885        N887   1.157       .  T
C886        N888   1.157       .  T
C889        C890   1.412       .  A
C889        C894   1.412       .  A
C890        C891   1.397   1_565  A
C890        H895   1.085       .  S
C891        C892   1.412       .  A
C891        C898   1.445       .  S
C892        C893   1.411       .  A
C893        C894   1.406   1_545  A
C893        H896   1.085       .  S
C894        C897   1.443       .  S
C897        N899   1.157       .  T
C898        N900   1.157       .  T
C901        C902   1.405       .  A
C901        C906   1.422       .  A
C902        C903   1.405   1_455  A
C902        H907   1.084       .  S
C903        C904   1.423       .  A
C903        C910   1.445       .  S
C904        C905   1.406       .  A
C905        C906   1.407   1_655  A
C905        H908   1.084       .  S
C906        C909   1.444       .  S
C909        N911   1.157       .  T
C910        N912   1.157       .  T
C913        C914   1.396       .  A
C913        C918   1.411       .  A
C914        C915   1.391       .  A
C914        H919   1.086       .  S
C915        C916   1.411       .  A
C915        C922   1.445       .  S
C916        C917   1.395       .  A
C917        C918   1.389       .  A
C917        H920   1.086       .  S
C918        C921   1.445       .  S
C921        N923   1.157       .  T
C922        N924   1.157       .  T
C925        C926   1.407       .  A
C925        C930   1.418       .  A
C926        C927   1.406       .  A
C926        H931   1.085       .  S
C927        C928   1.416       .  A
C927        C934   1.444       .  S
C928        C929   1.404       .  A
C929        C930   1.406       .  A
C929        H932   1.085       .  S
C930        C933   1.444       .  S
C933        N935   1.157       .  T
C934        N936   1.157   1_556  T
C937        C938   1.407       .  A
C937        C942   1.406   1_554  A
C938        C939   1.395       .  A
C938        H943   1.085       .  S
C939        C940   1.409   1_554  A
C939        C946   1.445       .  S
C940        C941   1.406       .  A
C941        C942   1.392       .  A
C941        H944   1.085       .  S
C942        C945   1.444       .  S
C945        N947   1.157       .  T
C946        N948   1.157       .  T
C949        C950   1.399       .  A
C949        C954   1.419       .  A
C950        C951   1.400       .  A
C950        H955   1.085       .  S
C951        C952   1.426       .  A
C951        C958   1.446       .  S
C952        C953   1.408       .  A
C953        C954   1.414       .  A
C953        H956   1.084       .  S
C954        C957   1.444       .  S
C957        N959   1.157       .  T
C958        N960   1.157   1_554  T
C961        C962   1.402       .  A
C961        C966   1.422       .  A
C962        C963   1.399       .  A
C962        H967   1.084       .  S
C963        C964   1.425       .  A
C963        C970   1.446       .  S
C964        C965   1.404       .  A
C965        C966   1.404       .  A
C965        H968   1.084       .  S
C966        C969   1.445       .  S
C969        N971   1.157   1_554  T
C970        N972   1.158       .  T
C973        C974   1.409       .  A
C973        C978   1.416       .  A
C974        C975   1.406       .  A
C974        H979   1.084       .  S
C975        C976   1.413       .  A
C975        C982   1.444       .  S
C976        C977   1.408       .  A
C977        C978   1.407       .  A
C977        H980   1.084       .  S
C978        C981   1.444       .  S
C981        N983   1.157       .  T
C982        N984   1.157       .  T
C985        C986   1.409       .  A
C985        C990   1.413       .  A
C986        C987   1.411       .  A
C986        H991   1.085       .  S
C987        C988   1.416       .  A
C987        C994   1.443       .  S
C988        C989   1.410       .  A
C989        C990   1.404       .  A
C989        H992   1.085       .  S
C990        C993   1.444       .  S
C993        N995   1.157       .  T
C994        N996   1.157       .  T
C997        C998   1.403       .  A
C997       C1002   1.414       .  A
C998        C999   1.388       .  A
C998       H1003   1.084       .  S
C999       C1000   1.412       .  A
C999       C1006   1.445       .  S
C1000      C1001   1.404       .  A
C1001      C1002   1.389       .  A
C1001      H1004   1.085       .  S
C1002      C1005   1.446       .  S
C1005      N1007   1.158       .  T
C1006      N1008   1.157       .  T
C1009      C1010   1.402       .  A
C1009      C1014   1.407       .  A
C1010      C1011   1.392       .  A
C1010      H1015   1.086       .  S
C1011      C1012   1.410       .  A
C1011      C1018   1.445       .  S
C1012      C1013   1.402       .  A
C1013      C1014   1.392       .  A
C1013      H1016   1.086       .  S
C1014      C1017   1.445       .  S
C1017      N1019   1.157       .  T
C1018      N1020   1.157       .  T
C1021      C1022   1.404       .  A
C1021      C1026   1.421       .  A
C1022      C1023   1.404       .  A
C1022      H1027   1.084       .  S
C1023      C1024   1.425       .  A
C1023      C1030   1.445       .  S
C1024      C1025   1.407       .  A
C1025      C1026   1.407       .  A
C1025      H1028   1.084       .  S
C1026      C1029   1.444       .  S
C1029      N1031   1.157       .  T
C1030      N1032   1.158       .  T
C1033      C1034   1.412       .  A
C1033      C1038   1.414       .  A
C1034      C1035   1.403       .  A
C1034      H1039   1.085       .  S
C1035      C1036   1.414       .  A
C1035      C1042   1.444       .  S
C1036      C1037   1.413       .  A
C1037      C1038   1.402       .  A
C1037      H1040   1.085       .  S
C1038      C1041   1.445       .  S
C1041      N1043   1.158       .  T
C1042      N1044   1.157       .  T
