geometry optimzed in LAMMPS
_audit_creation_date              2020-12-01 
_audit_creation_method            'lammps2cif' 
_symmetry_space_group_name_H-M    'P1' 
_symmetry_Int_Tables_number       1 
_symmetry_cell_setting            triclinic 
loop_ 
_symmetry_equiv_pos_as_xyz 
  x,y,z 
_cell_length_a                    45.24190067 
_cell_length_b                    45.2009430436548 
_cell_length_c                    45.21218668224181 
_cell_angle_alpha                 90.2001390479049 
_cell_angle_beta                  90.11286299085752 
_cell_angle_gamma                 90.10540874665126 
loop_ 
_atom_site_label 
_atom_site_type_symbol 
_atom_site_fract_x 
_atom_site_fract_y 
_atom_site_fract_z 
_atom_site_charge 
O1          O  0.66411201  0.28965835  0.02377986    -0.71900
O2          O  0.65774435  0.37352361  0.02803191    -0.72100
O3          O  0.61891775  0.32826984  0.02522441    -0.71900
O4          O  0.70266278  0.33452639  0.02669146    -0.71900
O5          O  0.70337983  0.33511985  0.97867986    -0.71900
O6          O  0.61930882  0.33261847  0.97742101    -0.71900
O7          O  0.66005485  0.37562802  0.98013832    -0.71900
O8          O  0.66220295  0.29183874  0.97579326    -0.72000
V9          V  0.66083144  0.33156347  0.02501521     1.35200
V10         V  0.66127544  0.33375132  0.97893766     1.35200
C11         C  0.66380943  0.27650481  0.99905086     0.77400
C12         C  0.65814886  0.38893079  0.00470565     0.77400
C13         C  0.60476759  0.32967802  0.00110306     0.77300
C14         C  0.71737794  0.33542789  0.00296262     0.77300
O15         O  0.28489409  0.33493562  0.97902544    -0.71900
O16         O  0.36884193  0.33256811  0.97767217    -0.72100
O17         O  0.32520402  0.29189408  0.97829293    -0.71900
O18         O  0.32806505  0.37573065  0.97829555    -0.71900
O19         O  0.32966070  0.37609136  0.02628663    -0.71900
O20         O  0.32611268  0.29206447  0.02636658    -0.71900
O21         O  0.36971966  0.33206819  0.02568956    -0.71900
O22         O  0.28583794  0.33590263  0.02704468    -0.72000
V23         V  0.32683305  0.33381903  0.97926674     1.35200
V24         V  0.32779019  0.33404696  0.02542193     1.35200
C25         C  0.27103566  0.33574207  0.00327075     0.77400
C26         C  0.38361388  0.33161434  0.00145444     0.77400
C27         C  0.32504414  0.27772590  0.00232171     0.77300
C28         C  0.32921325  0.39027223  0.00221203     0.77300
O29         O  0.71122032  0.66794646  0.03014459    -0.71900
O30         O  0.62708677  0.66637400  0.02728573    -0.72100
O31         O  0.66934664  0.62495200  0.03002145    -0.71900
O32         O  0.66839984  0.70900381  0.02770564    -0.71900
O33         O  0.67444162  0.70748862  0.98005478    -0.71900
O34         O  0.66683845  0.62381954  0.98208056    -0.71900
O35         O  0.62883507  0.66886334  0.97937352    -0.71900
O36         O  0.71229649  0.66191918  0.98244556    -0.72000
V37         V  0.66910594  0.66702236  0.02793954     1.35200
V38         V  0.67059449  0.66559795  0.98189059     1.35200
C39         C  0.72603555  0.66462972  0.00664459     0.77400
C40         C  0.61360386  0.66770043  0.00275775     0.77400
C41         C  0.66701643  0.61003734  0.00638575     0.77300
C42         C  0.67191584  0.72254585  0.00355380     0.77300
O43         O  0.29412265  0.66680444  0.01993472    -0.71900
O44         O  0.37796896  0.66940158  0.01977994    -0.72100
O45         O  0.33476013  0.71016328  0.01918326    -0.71900
O46         O  0.33718759  0.62634011  0.02062533    -0.71900
O47         O  0.33350149  0.62535319  0.97275414    -0.71900
O48         O  0.33855730  0.70943771  0.97131409    -0.71900
O49         O  0.37805751  0.66494102  0.97196757    -0.71900
O50         O  0.29404245  0.66983602  0.97200167    -0.72000
V51         V  0.33605695  0.66821275  0.01895709     1.35200
V52         V  0.33604155  0.66739721  0.97286962     1.35200
C53         C  0.27974281  0.66834425  0.99598880     0.77400
C54         C  0.39239612  0.66685539  0.99596125     0.77400
C55         C  0.33667133  0.72416390  0.99509171     0.77300
C56         C  0.33494630  0.61147877  0.99700027     0.77300
O57         O  0.70806392  0.98037267  0.66649034    -0.71900
O58         O  0.62424391  0.98010634  0.65939807    -0.72100
O59         O  0.66932755  0.97882664  0.62102620    -0.71900
O60         O  0.66276177  0.98137205  0.70457839    -0.71900
O61         O  0.66813384  0.02913389  0.70367460    -0.71900
O62         O  0.66461414  0.02658610  0.61954816    -0.71900
O63         O  0.62427862  0.02800341  0.66317277    -0.71900
O64         O  0.70815115  0.02798351  0.65984233    -0.72000
V65         V  0.66613425  0.98103235  0.66282485     1.35200
V66         V  0.66626020  0.02708584  0.66159066     1.35200
C67         C  0.72236297  0.00427115  0.66365078     0.77400
C68         C  0.60988504  0.00406592  0.66093594     0.77400
C69         C  0.66710670  0.00220446  0.60590787     0.77300
C70         C  0.66529939  0.00556201  0.71844972     0.77300
O71         O  0.29010093  0.97800211  0.66627031    -0.71900
O72         O  0.37415878  0.97786224  0.66273081    -0.72100
O73         O  0.33353908  0.97877947  0.70640138    -0.71900
O74         O  0.33029814  0.97686658  0.62249197    -0.71900
O75         O  0.33334781  0.02479711  0.62155740    -0.71900
O76         O  0.33130746  0.02675401  0.70568505    -0.71900
O77         O  0.37420940  0.02585859  0.66468963    -0.71900
O78         O  0.29030211  0.02588638  0.66249340    -0.72000
V79         V  0.33207785  0.97879053  0.66445371     1.35200
V80         V  0.33227429  0.02491044  0.66361671     1.35200
C81         C  0.27586502  0.00200909  0.66467008     0.77400
C82         C  0.38855703  0.00191021  0.66347388     0.77400
C83         C  0.33217232  0.00300552  0.72040611     0.77300
C84         C  0.33180988  0.00048059  0.60765673     0.77300
O85         O  0.29864963  0.01997695  0.33073076    -0.71900
O86         O  0.38255356  0.01837420  0.32983533    -0.72100
O87         O  0.34023068  0.01969551  0.28849822    -0.71900
O88         O  0.34120879  0.01870598  0.37241135    -0.71900
O89         O  0.34085402  0.97066636  0.37192549    -0.71900
O90         O  0.33766748  0.97168368  0.28777857    -0.71900
O91         O  0.38160795  0.97037543  0.32829790    -0.71900
O92         O  0.29767601  0.97195901  0.33126003    -0.72000
V93         V  0.34063839  0.01823489  0.33041821     1.35200
V94         V  0.33957348  0.97208332  0.32983673     1.35200
C95         C  0.28381567  0.99622237  0.33105115     0.77400
C96         C  0.39643420  0.99415958  0.32847965     0.77400
C97         C  0.33825851  0.99591219  0.27386420     0.77300
C98         C  0.34105770  0.99459813  0.38653408     0.77300
O99         O  0.71594800  0.01837922  0.33121803    -0.71900
O100        O  0.63209599  0.01854075  0.32545901    -0.72100
O101        O  0.67125234  0.01872882  0.37010400    -0.71900
O102        O  0.67686643  0.01833194  0.28644800    -0.71900
O103        O  0.67224027  0.97045040  0.28634594    -0.71900
O104        O  0.67479051  0.97084743  0.37050355    -0.71900
O105        O  0.63187265  0.97069308  0.32942829    -0.71900
O106        O  0.71580953  0.97049348  0.32715369    -0.72000
V107        V  0.67404365  0.01759817  0.32830732     1.35200
V108        V  0.67376938  0.97149204  0.32837613     1.35200
C109        C  0.73023607  0.99441095  0.32944524     0.77400
C110        C  0.61762089  0.99460487  0.32704459     0.77400
C111        C  0.67247451  0.99494110  0.38467852     0.77300
C112        C  0.67447079  0.99439009  0.27213761     0.77300
O113        O  0.02116854  0.71278821  0.66214429    -0.71900
O114        O  0.02242581  0.62877471  0.66512826    -0.72100
O115        O  0.02180925  0.66939929  0.62194781    -0.71900
O116        O  0.02189455  0.67245500  0.70576619    -0.71900
O117        O  0.97407221  0.66804025  0.70590227    -0.71900
O118        O  0.97387251  0.67159533  0.62184077    -0.71900
O119        O  0.97453161  0.62798960  0.66213342    -0.71900
O120        O  0.97326682  0.71191641  0.66589428    -0.72000
V121        V  0.02091404  0.67080363  0.66380100     1.35200
V122        V  0.97482433  0.66993553  0.66390539     1.35200
C123        C  0.99698150  0.72659569  0.66393048     0.77400
C124        C  0.99866689  0.61400706  0.66363121     0.77400
C125        C  0.99788880  0.67063330  0.60753431     0.77300
C126        C  0.99806643  0.67015788  0.72016128     0.77300
O127        O  0.02459311  0.33915169  0.71666641    -0.71900
O128        O  0.02479860  0.33419283  0.63264502    -0.72100
O129        O  0.02477274  0.37854895  0.67218651    -0.71900
O130        O  0.02456040  0.29456338  0.67724479    -0.71900
O131        O  0.97670232  0.29463657  0.67320193    -0.71900
O132        O  0.97689928  0.37850427  0.67530535    -0.71900
O133        O  0.97693273  0.33746197  0.63245786    -0.71900
O134        O  0.97671758  0.33536454  0.71632414    -0.72000
V135        V  0.02381151  0.33659233  0.67467088     1.35200
V136        V  0.97773363  0.33653534  0.67437336     1.35200
C137        C  0.00058860  0.33719345  0.73081958     0.77400
C138        C  0.00086537  0.33570802  0.61817537     0.77400
C139        C  0.00080200  0.39289021  0.67315323     0.77300
C140        C  0.00052392  0.28028559  0.67555465     0.77300
O141        O  0.02589225  0.66094258  0.28817538    -0.71900
O142        O  0.02587975  0.66504408  0.37219446    -0.72100
O143        O  0.02460745  0.62115772  0.33194301    -0.71900
O144        O  0.02732833  0.70498224  0.32835113    -0.71900
O145        O  0.97951444  0.70640965  0.33210113    -0.71900
O146        O  0.97680641  0.62236743  0.32794310    -0.71900
O147        O  0.97795442  0.66265991  0.37186796    -0.71900
O148        O  0.97819140  0.66661807  0.28808245    -0.72000
V149        V  0.02504298  0.66305098  0.33015928     1.35200
V150        V  0.97900125  0.66443786  0.32998731     1.35200
C151        C  0.00204742  0.66390668  0.27386198     0.77400
C152        C  0.00181936  0.66413802  0.38640468     0.77400
C153        C  0.00033442  0.60737054  0.32994231     0.77300
C154        C  0.00389030  0.72005707  0.33034597     0.77300
O155        O  0.97478517  0.28763691  0.34046925    -0.71900
O156        O  0.97452532  0.37166978  0.33979935    -0.72100
O157        O  0.97471074  0.32904177  0.29842508    -0.71900
O158        O  0.97472288  0.33021189  0.38246013    -0.71900
O159        O  0.02268220  0.33171556  0.38247957    -0.71900
O160        O  0.02278636  0.32814389  0.29863101    -0.71900
O161        O  0.02250471  0.37182972  0.33889203    -0.71900
O162        O  0.02280163  0.28788995  0.34240622    -0.72000
V163        V  0.97561059  0.32963763  0.34037386     1.35200
V164        V  0.02175723  0.32986873  0.34059066     1.35200
C165        C  0.99882733  0.27349468  0.34154736     0.77400
C166        C  0.99847570  0.38610428  0.33873236     0.77400
C167        C  0.99877138  0.32831314  0.28434631     0.77300
C168        C  0.99874186  0.33143735  0.39683657     0.77300
O169        O  0.99145183  0.30926272  0.96511199    -0.71900
O170        O  0.99624996  0.30733922  0.04895715    -0.72100
O171        O  0.95195089  0.30899226  0.00950694    -0.71900
O172        O  0.03593199  0.30778039  0.00448889    -0.71900
O173        O  0.03662021  0.35531574  0.01203183    -0.71900
O174        O  0.95302998  0.35679182  0.00435315    -0.71900
O175        O  0.99143855  0.35512603  0.05004633    -0.71900
O176        O  0.99877780  0.35679641  0.96636472    -0.72000
V177        V  0.99392931  0.30914416  0.00704827     1.35200
V178        V  0.99487148  0.35518230  0.00818571     1.35200
C179        C  0.99554650  0.33328315  0.95146252     0.77400
C180        C  0.99384909  0.33094357  0.06387068     0.77400
C181        C  0.93822851  0.33316813  0.00669576     0.77300
C182        C  0.05052629  0.33139950  0.00831638     0.77300
O183        O  0.00315124  0.64302269  0.03867897    -0.71900
O184        O  0.00179941  0.64392296  0.95472925    -0.72100
O185        O  0.04457128  0.64323909  0.99658175    -0.71900
O186        O  0.96058295  0.64372427  0.99695596    -0.71900
O187        O  0.96088034  0.69179822  0.99779077    -0.71900
O188        O  0.04489551  0.69134633  0.99701885    -0.71900
O189        O  0.00285757  0.69202106  0.95538866    -0.71900
O190        O  0.00286209  0.69110378  0.03939073    -0.72000
V191        V  0.00255648  0.64441978  0.99672981     1.35200
V192        V  0.00288501  0.69063205  0.99737636     1.35200
C193        C  0.00296133  0.66689640  0.05331599     0.77400
C194        C  0.00209113  0.66812001  0.94082066     0.77400
C195        C  0.05897976  0.66722322  0.99674114     0.77300
C196        C  0.94643804  0.66781856  0.99761458     0.77300
O197        O  0.00978761  0.03819151  0.35870575    -0.71900
O198        O  0.00465008  0.95445977  0.35645123    -0.72100
O199        O  0.04927349  0.99378410  0.35711314    -0.71900
O200        O  0.96531461  0.99888442  0.35779454    -0.71900
O201        O  0.96526205  0.99219221  0.31014692    -0.71900
O202        O  0.04860098  0.00258624  0.30985492    -0.71900
O203        O  0.01201927  0.95563637  0.30894628    -0.71900
O204        O  0.00173739  0.03916708  0.31131603    -0.72000
V205        V  0.00728844  0.99634292  0.35677108     1.35200
V206        V  0.00693286  0.99739721  0.31081293     1.35200
C207        C  0.00510415  0.05298892  0.33549336     0.77400
C208        C  0.00857193  0.94079488  0.33235626     0.77400
C209        C  0.06318949  0.99846556  0.33333553     0.77300
C210        C  0.95101103  0.99517042  0.33398899     0.77300
O211        O  0.99625901  0.96041850  0.69110715    -0.71900
O212        O  0.00205205  0.04398334  0.69671831    -0.72100
O213        O  0.95722168  0.00468087  0.69426713    -0.71900
O214        O  0.04110431  0.99927425  0.69341172    -0.71900
O215        O  0.04074348  0.00698929  0.64597917    -0.71900
O216        O  0.95691551  0.00392237  0.64620596    -0.71900
O217        O  0.99703771  0.04700845  0.64898891    -0.71900
O218        O  0.00023992  0.96308098  0.64333177    -0.72000
V219        V  0.99917515  0.00216484  0.69299777     1.35200
V220        V  0.99880163  0.00512019  0.64699051     1.35200
C221        C  0.99779056  0.94741026  0.66636917     0.77400
C222        C  0.99942811  0.05972915  0.67381916     0.77400
C223        C  0.94276724  0.00475862  0.67027681     0.77300
C224        C  0.05518665  0.00308747  0.66959745     0.77300
O225        O  0.64568848  0.00035721  0.03746457    -0.71900
O226        O  0.64529569  0.99668771  0.95349954    -0.72100
O227        O  0.64675423  0.95682891  0.99756281    -0.71900
O228        O  0.64434418  0.04078966  0.99345508    -0.71900
O229        O  0.69217233  0.04212043  0.99777042    -0.71900
O230        O  0.69451556  0.95824155  0.99269868    -0.71900
O231        O  0.69294703  0.00288943  0.95326166    -0.71900
O232        O  0.69367321  0.99810616  0.03713294    -0.72000
V233        V  0.64638830  0.99874625  0.99546147     1.35200
V234        V  0.69244794  0.00024526  0.99520346     1.35200
C235        C  0.66978925  0.99899435  0.05160469     0.77400
C236        C  0.66897531  0.00012573  0.93909880     0.77400
C237        C  0.67105506  0.94323317  0.99545267     0.77300
C238        C  0.66792077  0.05577489  0.99559710     0.77300
O239        O  0.35230364  0.96064315  0.99388269    -0.71900
O240        O  0.34772333  0.04421334  0.00068886    -0.72100
O241        O  0.35026697  0.99984304  0.03916392    -0.71900
O242        O  0.34973473  0.00582244  0.95543182    -0.71900
O243        O  0.30224736  0.99827892  0.95528809    -0.71900
O244        O  0.30221441  0.00085363  0.03939082    -0.71900
O245        O  0.29994932  0.04178344  0.99599331    -0.71900
O246        O  0.30457119  0.95782281  0.99870341    -0.72000
V247        V  0.34912145  0.00249420  0.99728339     1.35200
V248        V  0.30309498  0.99977382  0.99732329     1.35200
C249        C  0.32921814  0.94498986  0.99600348     0.77400
C250        C  0.32313282  0.05725478  0.99880260     0.77400
C251        C  0.32633756  0.00030497  0.05355749     0.77300
C252        C  0.32595203  0.00242736  0.94112641     0.77300
C253        C  0.03712538  0.14785781  0.37913734    -0.17900
C254        C  0.03672431  0.17878936  0.37960624    -0.20100
C255        C  0.01833371  0.19446000  0.36018837     0.20600
C256        C  0.99998865  0.17881831  0.34021334    -0.03000
C257        C  0.00090243  0.14762816  0.33927388    -0.06100
C258        C  0.01949001  0.13210729  0.35892674     0.20900
C259        C  0.98340632  0.13201133  0.31853941     0.19000
C260        C  0.96457453  0.14767017  0.29951891    -0.17500
C261        C  0.96319979  0.17856930  0.30087906    -0.19800
C262        C  0.98091946  0.19433903  0.32101552     0.20500
C263        C  0.98013564  0.22534736  0.32213567    -0.32800
C264        C  0.99891058  0.24096930  0.34144195     0.01200
C265        C  0.01804906  0.22548281  0.36028794    -0.24100
C266        C  0.02032451  0.10112976  0.35783704    -0.28700
C267        C  0.00355298  0.08552007  0.33674804     0.06900
C268        C  0.98516940  0.10104612  0.31713259    -0.27400
H269        H  0.05149578  0.13625153  0.39436820     0.11600
H270        H  0.05079984  0.19046441  0.39517673     0.12700
H271        H  0.95089961  0.13601326  0.28358096     0.11800
H272        H  0.94848359  0.19015824  0.28596866     0.11000
H273        H  0.96554516  0.23740393  0.30744030     0.16400
H274        H  0.03236702  0.23762602  0.37530322     0.12300
H275        H  0.03455528  0.08915643  0.37294399     0.15200
H276        H  0.97193187  0.08897414  0.30110497     0.15000
C277        C  0.00342413  0.38253091  0.19058998    -0.17900
C278        C  0.00222869  0.38295273  0.15969737    -0.20100
C279        C  0.99861225  0.35656738  0.14363984     0.20600
C280        C  0.99622078  0.32944118  0.15882119    -0.03000
C281        C  0.99724092  0.32902034  0.19000769    -0.06100
C282        C  0.00089598  0.35572803  0.20592507     0.20900
C283        C  0.99450558  0.30192225  0.20525157     0.19000
C284        C  0.99104895  0.27553089  0.18916962    -0.17500
C285        C  0.99026804  0.27593530  0.15822971    -0.19800
C286        C  0.99278876  0.30275847  0.14286321     0.20500
C287        C  0.99197047  0.30337970  0.11184016    -0.32800
C288        C  0.99424398  0.33036734  0.09657291     0.01200
C289        C  0.99743414  0.35685824  0.11266852    -0.24100
C290        C  0.00178144  0.35515953  0.23689558    -0.28700
C291        C  0.99877110  0.32832880  0.25201609     0.06900
C292        C  0.99514984  0.30178425  0.23628310    -0.27400
H293        H  0.00622534  0.40319254  0.20250060     0.11600
H294        H  0.00415592  0.40394108  0.14834919     0.12700
H295        H  0.98895313  0.25456201  0.20052714     0.11800
H296        H  0.98761649  0.25526052  0.14631187     0.11000
H297        H  0.98944892  0.28286559  0.09959380     0.16400
H298        H  0.99936746  0.37772643  0.10107667     0.12300
H299        H  0.00447157  0.37556564  0.24931762     0.15200
H300        H  0.99281906  0.28114775  0.24823503     0.15000
C301        C  0.94629880  0.51201892  0.32274105    -0.17900
C302        C  0.94603362  0.48107927  0.32421784    -0.20100
C303        C  0.97220697  0.46539898  0.32981003     0.20600
C304        C  0.99896307  0.48105067  0.33366378    -0.03000
C305        C  0.99922495  0.51225182  0.33219940    -0.06100
C306        C  0.97274025  0.52783202  0.32685086     0.20900
C307        C  0.02597610  0.52783257  0.33627079     0.19000
C308        C  0.05219685  0.51218308  0.34158262    -0.17500
C309        C  0.05194646  0.48130438  0.34298466    -0.19800
C310        C  0.02546620  0.46555748  0.33912074     0.20500
C311        C  0.02506113  0.43460347  0.34070129    -0.32800
C312        C  0.99848428  0.41880959  0.33712200     0.01200
C313        C  0.97211702  0.43438616  0.33167404    -0.24100
C314        C  0.97316260  0.55891211  0.32591970    -0.28700
C315        C  0.99975599  0.57458903  0.33021827     0.06900
C316        C  0.02606425  0.55879731  0.33517872    -0.27400
H317        H  0.92577537  0.52359464  0.31852407     0.11600
H318        H  0.92531175  0.46941055  0.32109162     0.12700
H319        H  0.07291720  0.52384613  0.34474853     0.11800
H320        H  0.07247694  0.46973095  0.34718457     0.11000
H321        H  0.04547729  0.42280769  0.34491798     0.16400
H322        H  0.95155385  0.42237749  0.32869458     0.12300
H323        H  0.95279383  0.57087255  0.32197228     0.15200
H324        H  0.04668130  0.57062463  0.33850693     0.15000
C325        C  0.05780271  0.84521120  0.31362771    -0.17900
C326        C  0.05728566  0.81424363  0.31392225    -0.20100
C327        C  0.03168083  0.79896991  0.32256061     0.20600
C328        C  0.00641718  0.81505985  0.33122900    -0.03000
C329        C  0.00707841  0.84627587  0.33137112    -0.06100
C330        C  0.03281941  0.86143320  0.32225099     0.20900
C331        C  0.98196594  0.86230312  0.34063360     0.19000
C332        C  0.95635655  0.84707727  0.34921383    -0.17500
C333        C  0.95555720  0.81616823  0.34862304    -0.19800
C334        C  0.98045553  0.79998253  0.33972839     0.20500
C335        C  0.97980767  0.76898949  0.33919395    -0.32800
C336        C  0.00489740  0.75276462  0.33070083     0.01200
C337        C  0.03083522  0.76791927  0.32258695    -0.24100
C338        C  0.03306902  0.89250788  0.32201648    -0.28700
C339        C  0.00823938  0.90837769  0.33165580     0.06900
C340        C  0.98290249  0.89327324  0.34113471    -0.27400
H341        H  0.07777556  0.85647884  0.30671771     0.11600
H342        H  0.07687829  0.80222777  0.30722536     0.12700
H343        H  0.93688890  0.85908846  0.35628017     0.11800
H344        H  0.93547634  0.80490845  0.35522892     0.11000
H345        H  0.95980223  0.75748364  0.34565700     0.16400
H346        H  0.05024892  0.75556282  0.31594219     0.12300
H347        H  0.05266784  0.90436906  0.31495214     0.15200
H348        H  0.96377579  0.90573034  0.34845362     0.15000
C349        C  0.96933799  0.70769412  0.17963488    -0.17900
C350        C  0.97002461  0.70854079  0.14871158    -0.20100
C351        C  0.98636013  0.68753650  0.13272458     0.20600
C352        C  0.00220251  0.66546565  0.14803494    -0.03000
C353        C  0.00206689  0.66503094  0.17923523    -0.06100
C354        C  0.98533004  0.68609729  0.19508783     0.20900
C355        C  0.01872177  0.64355705  0.19454689     0.19000
C356        C  0.03475276  0.62233288  0.17856367    -0.17500
C357        C  0.03432427  0.62234013  0.14763488    -0.19800
C358        C  0.01823227  0.64385394  0.13218649     0.20500
C359        C  0.01798428  0.64421937  0.10118208    -0.32800
C360        C  0.00274079  0.66647051  0.08587037     0.01200
C361        C  0.98712835  0.68816790  0.10171708    -0.24100
C362        C  0.98499876  0.68522668  0.22609616    -0.28700
C363        C  0.00202607  0.66427552  0.24136678     0.06900
C364        C  0.01901368  0.64367806  0.22555802    -0.27400
H365        H  0.95645411  0.72406397  0.19147888     0.11600
H366        H  0.95766710  0.72555583  0.13728725     0.12700
H367        H  0.04753114  0.60563608  0.18999295     0.11800
H368        H  0.04677336  0.60563876  0.13578507     0.11000
H369        H  0.03014881  0.62756949  0.08892679     0.16400
H370        H  0.97512073  0.70516544  0.08986092     0.12300
H371        H  0.97205212  0.70122666  0.23841241     0.15200
H372        H  0.03194368  0.62739261  0.23744749     0.15000
C373        C  0.94595500  0.33191820  0.49253660    -0.17900
C374        C  0.94629922  0.33257813  0.52346157    -0.20100
C375        C  0.97319213  0.33401820  0.53892884     0.20600
C376        C  0.00001668  0.33498021  0.52310648    -0.03000
C377        C  0.99966478  0.33437162  0.49188688    -0.06100
C378        C  0.97249480  0.33273102  0.47655231     0.20900
C379        C  0.02648463  0.33526893  0.47605340     0.19000
C380        C  0.05336995  0.33695116  0.49152437    -0.17500
C381        C  0.05371937  0.33750614  0.52246208    -0.19800
C382        C  0.02718987  0.33641179  0.53845691     0.20500
C383        C  0.02735689  0.33661222  0.56950165    -0.32800
C384        C  0.00069703  0.33552601  0.58542996     0.01200
C385        C  0.97370982  0.33438107  0.56992902    -0.24100
C386        C  0.97233093  0.33183353  0.44553056    -0.28700
C387        C  0.99897878  0.33255417  0.42957608     0.06900
C388        C  0.02596438  0.33436147  0.44504821    -0.27400
H389        H  0.92490789  0.33069856  0.48111204     0.11600
H390        H  0.92550796  0.33185437  0.53529681     0.12700
H391        H  0.07415812  0.33772425  0.47968722     0.11800
H392        H  0.07476700  0.33869385  0.53388907     0.11000
H393        H  0.04824963  0.33765658  0.58124786     0.16400
H394        H  0.95303805  0.33357018  0.58199090     0.12300
H395        H  0.95143287  0.33049339  0.43382257     0.15200
H396        H  0.04663230  0.33499814  0.43297089     0.15000
C397        C  0.95492071  0.30286521  0.85491622    -0.17900
C398        C  0.95530301  0.30392680  0.82401900    -0.20100
C399        C  0.97732454  0.31994914  0.80920758     0.20600
C400        C  0.99922809  0.33505170  0.82565059    -0.03000
C401        C  0.99846583  0.33451241  0.85685045    -0.06100
C402        C  0.97630930  0.31814808  0.87151301     0.20900
C403        C  0.01978141  0.35040998  0.87334911     0.19000
C404        C  0.04207451  0.36605411  0.85851158    -0.17500
C405        C  0.04320106  0.36605890  0.82757050    -0.19800
C406        C  0.02181056  0.35076786  0.81093665     0.20500
C407        C  0.02246541  0.35103281  0.77988089    -0.32800
C408        C  0.00031417  0.33654962  0.76344171     0.01200
C409        C  0.97779302  0.32114803  0.77824658    -0.24100
C410        C  0.97585049  0.31747583  0.90250369    -0.28700
C411        C  0.99657876  0.33378742  0.91897318     0.06900
C412        C  0.01837955  0.35035370  0.90436297    -0.27400
H413        H  0.93774516  0.29026601  0.86584491     0.11600
H414        H  0.93840232  0.29213603  0.81169121     0.12700
H415        H  0.05869088  0.37823595  0.87084487     0.11800
H416        H  0.06067229  0.37824099  0.81663945     0.11000
H417        H  0.03981889  0.36299308  0.76849395     0.16400
H418        H  0.96087703  0.30967414  0.76560636     0.12300
H419        H  0.95898172  0.30481207  0.91387477     0.15200
H420        H  0.03455233  0.36267611  0.91718167     0.15000
C421        C  0.95478023  0.18561252  0.64619911    -0.17900
C422        C  0.95480233  0.15468973  0.64569441    -0.20100
C423        C  0.97657110  0.13885112  0.66105100     0.20600
C424        C  0.99831636  0.15426609  0.67743910    -0.03000
C425        C  0.99867886  0.18547821  0.67740475    -0.06100
C426        C  0.97676368  0.20118159  0.66173013     0.20900
C427        C  0.02113285  0.20093961  0.69276018     0.19000
C428        C  0.04244345  0.18506223  0.70874942    -0.17500
C429        C  0.04171920  0.15410923  0.70929749    -0.19800
C430        C  0.01992522  0.13850333  0.69351875     0.20500
C431        C  0.01961436  0.10744504  0.69308557    -0.32800
C432        C  0.99869689  0.09214794  0.67586853     0.01200
C433        C  0.97721153  0.10788415  0.66000546    -0.24100
C434        C  0.97736669  0.23217011  0.66162886    -0.28700
C435        C  0.00005405  0.24768069  0.67625969     0.06900
C436        C  0.02191929  0.23197058  0.69173016    -0.27400
H437        H  0.93778219  0.19736420  0.63410950     0.11600
H438        H  0.93785301  0.14315535  0.63319291     0.12700
H439        H  0.05971978  0.19659076  0.72079673     0.11800
H440        H  0.05846143  0.14235982  0.72173834     0.11000
H441        H  0.03620879  0.09516987  0.70525104     0.16400
H442        H  0.96088261  0.09593466  0.64702381     0.12300
H443        H  0.96052021  0.24425322  0.64961728     0.15200
H444        H  0.03924174  0.24392851  0.70331820     0.15000
C445        C  0.05276861  0.67614305  0.51337328    -0.17900
C446        C  0.05342472  0.67493197  0.48246294    -0.20100
C447        C  0.02724151  0.67078464  0.46626433     0.20600
C448        C  0.00008584  0.66811954  0.48136629    -0.03000
C449        C  0.99941522  0.66940139  0.51255284    -0.06100
C450        C  0.02591851  0.67324836  0.52860186     0.20900
C451        C  0.97226324  0.66663338  0.52765020     0.19000
C452        C  0.94605160  0.66277026  0.51144694    -0.17500
C453        C  0.94671975  0.66146815  0.48055030    -0.19800
C454        C  0.97360401  0.66404435  0.46533505     0.20500
C455        C  0.97444130  0.66260280  0.43438028    -0.32800
C456        C  0.00140341  0.66515653  0.41912809     0.01200
C457        C  0.02773043  0.66924379  0.43525999    -0.24100
C458        C  0.02514634  0.67387418  0.55958839    -0.28700
C459        C  0.99821646  0.67080892  0.57482205     0.06900
C460        C  0.97182508  0.66749471  0.55866766    -0.27400
H461        H  0.07330425  0.67920477  0.52538666     0.11600
H462        H  0.07444379  0.67711809  0.47122439     0.12700
H463        H  0.92502779  0.66061925  0.52268282     0.11800
H464        H  0.92618739  0.65837054  0.46854235     0.11000
H465        H  0.95402182  0.65949795  0.42215863     0.16400
H466        H  0.04859514  0.67137035  0.42370094     0.12300
H467        H  0.04558857  0.67664588  0.57185385     0.15200
H468        H  0.95098515  0.66513769  0.57022737     0.15000
C469        C  0.94639246  0.48754378  0.67266578    -0.17900
C470        C  0.94605511  0.51842845  0.67105317    -0.20100
C471        C  0.97251493  0.53433458  0.66783312     0.20600
C472        C  0.99957922  0.51897100  0.66601370    -0.03000
C473        C  0.99991420  0.48778843  0.66759084    -0.06100
C474        C  0.97319051  0.47204633  0.67105691     0.20900
C475        C  0.02697953  0.47240659  0.66586559     0.19000
C476        C  0.05340708  0.48830948  0.66234696    -0.17500
C477        C  0.05308395  0.51921885  0.66087387    -0.19800
C478        C  0.02632363  0.53475330  0.66283198     0.20500
C479        C  0.02586279  0.56577471  0.66188204    -0.32800
C480        C  0.99899371  0.58126120  0.66391062     0.01200
C481        C  0.97239271  0.56532867  0.66664506    -0.24100
C482        C  0.97371511  0.44110432  0.67294577    -0.28700
C483        C  0.00060312  0.42558818  0.67143268     0.06900
C484        C  0.02714902  0.44142733  0.66778896    -0.27400
H485        H  0.92567824  0.47577279  0.67527360     0.11600
H486        H  0.92508830  0.52989268  0.67246578     0.12700
H487        H  0.07436787  0.47684107  0.66088995     0.11800
H488        H  0.07380377  0.53099266  0.65833026     0.11000
H489        H  0.04645277  0.57785969  0.65963002     0.16400
H490        H  0.95157302  0.57705990  0.66825257     0.12300
H491        H  0.95312618  0.42910704  0.67562338     0.15200
H492        H  0.04796673  0.42966363  0.66643581     0.15000
C493        C  0.97289341  0.82110299  0.71238772    -0.17900
C494        C  0.97330071  0.85202226  0.71276443    -0.20100
C495        C  0.98466209  0.86783756  0.68866019     0.20600
C496        C  0.99569601  0.85242068  0.66387055    -0.03000
C497        C  0.99576787  0.82118904  0.66370595    -0.06100
C498        C  0.98413344  0.80549229  0.68803502     0.20900
C499        C  0.00763872  0.80568868  0.63932034     0.19000
C500        C  0.01862549  0.82154483  0.61505180    -0.17500
C501        C  0.01807610  0.85252152  0.61500326    -0.19800
C502        C  0.00685613  0.86818773  0.63937680     0.20500
C503        C  0.00691150  0.89929534  0.63988531    -0.32800
C504        C  0.99657465  0.91473479  0.66486897     0.01200
C505        C  0.98538161  0.89880280  0.68906526    -0.24100
C506        C  0.98410873  0.77447426  0.68764731    -0.28700
C507        C  0.99645305  0.75904825  0.66374087     0.06900
C508        C  0.00834744  0.77463920  0.63972917    -0.27400
H509        H  0.96398012  0.80938937  0.73125194     0.11600
H510        H  0.96471871  0.86358280  0.73193760     0.12700
H511        H  0.02765829  0.80997961  0.59609256     0.11800
H512        H  0.02670884  0.86423590  0.59601239     0.11000
H513        H  0.01561787  0.91144924  0.62119002     0.16400
H514        H  0.97710830  0.91054909  0.70828327     0.12300
H515        H  0.97510084  0.76227356  0.70618594     0.15200
H516        H  0.01768708  0.76253947  0.62122966     0.15000
C517        C  0.04419274  0.70003362  0.84573812    -0.17900
C518        C  0.04394159  0.69979251  0.81480610    -0.20100
C519        C  0.02167032  0.68462966  0.79927601     0.20600
C520        C  0.99948736  0.66940734  0.81503679    -0.03000
C521        C  0.00011001  0.66910413  0.84624578    -0.06100
C522        C  0.02242041  0.68475609  0.86164786     0.20900
C523        C  0.97844290  0.65313710  0.86201705     0.19000
C524        C  0.95604223  0.63816366  0.84648282    -0.17500
C525        C  0.95506664  0.63899296  0.81555642    -0.19800
C526        C  0.97671110  0.65447397  0.79963196     0.20500
C527        C  0.97606758  0.65521383  0.76859745    -0.32800
C528        C  0.99836682  0.66997876  0.75280031     0.01200
C529        C  0.02117940  0.68446173  0.76827225    -0.24100
C530        C  0.02259453  0.68476387  0.89267016    -0.28700
C531        C  0.00142661  0.66845120  0.90836074     0.06900
C532        C  0.97957411  0.65248959  0.89302235    -0.27400
H533        H  0.06152231  0.71204407  0.85722548     0.11600
H534        H  0.06109563  0.71161520  0.80301639     0.12700
H535        H  0.93918775  0.62590965  0.85826570     0.11800
H536        H  0.93747176  0.62736901  0.80407849     0.11000
H537        H  0.95856633  0.64382940  0.75670668     0.16400
H538        H  0.03830095  0.69602174  0.75614523     0.12300
H539        H  0.03952725  0.69690436  0.90465607     0.15200
H540        H  0.96314381  0.64010106  0.90529769     0.15000
C541        C  0.85684918  0.94743604  0.30613359    -0.17900
C542        C  0.82591461  0.94713527  0.30585382    -0.20100
C543        C  0.80989719  0.97058553  0.31840601     0.20600
C544        C  0.82521526  0.99455268  0.33145367    -0.03000
C545        C  0.85642079  0.99456952  0.33227738    -0.06100
C546        C  0.87229886  0.97100318  0.31931317     0.20900
C547        C  0.87171177  0.01816912  0.34604692     0.19000
C548        C  0.85572157  0.04179483  0.35825721    -0.17500
C549        C  0.82482476  0.04204724  0.35692863    -0.19800
C550        C  0.80937392  0.01849822  0.34370319     0.20500
C551        C  0.77837497  0.01843148  0.34261101    -0.32800
C552        C  0.76293693  0.99442166  0.33007065     0.01200
C553        C  0.77885841  0.97051312  0.31812050    -0.24100
C554        C  0.90331876  0.97147321  0.31975216    -0.28700
C555        C  0.91853723  0.99465785  0.33387010     0.06900
C556        C  0.90270552  0.01777526  0.34721528    -0.27400
H557        H  0.86869927  0.92914769  0.29615851     0.11600
H558        H  0.81450726  0.92860401  0.29568983     0.12700
H559        H  0.86712425  0.06015053  0.36874520     0.11800
H560        H  0.81299195  0.06059682  0.36642763     0.11000
H561        H  0.76622626  0.03686248  0.35197817     0.16400
H562        H  0.76708428  0.95205188  0.30821572     0.12300
H563        H  0.91567431  0.95362483  0.30954436     0.15200
H564        H  0.91458896  0.03579258  0.35780974     0.15000
C565        C  0.71718806  0.02584652  0.17724717    -0.17900
C566        C  0.71680334  0.02601960  0.14632761    -0.20100
C567        C  0.69405756  0.01168942  0.13071440     0.20600
C568        C  0.67149453  0.99691626  0.14637541    -0.03000
C569        C  0.67228075  0.99612063  0.17756871    -0.06100
C570        C  0.69510257  0.01092052  0.19304944     0.20900
C571        C  0.65025966  0.98054694  0.19324552     0.19000
C572        C  0.62731724  0.96650646  0.17762308    -0.17500
C573        C  0.62617598  0.96786006  0.14671209    -0.19800
C574        C  0.64818773  0.98292554  0.13088331     0.20500
C575        C  0.64741295  0.98417824  0.09986126    -0.32800
C576        C  0.67013803  0.99841786  0.08419344     0.01200
C577        C  0.69347013  0.01191681  0.09972273    -0.24100
C578        C  0.69545046  0.01049788  0.22404842    -0.28700
C579        C  0.67396058  0.99454819  0.23966219     0.06900
C580        C  0.65156410  0.97941646  0.22424370    -0.27400
H581        H  0.73488299  0.03723414  0.18880796     0.11600
H582        H  0.73422654  0.03752006  0.13461395     0.12700
H583        H  0.61017068  0.95458537  0.18932530     0.11800
H584        H  0.60816972  0.95695602  0.13516855     0.11000
H585        H  0.62952474  0.97353588  0.08785914     0.16400
H586        H  0.71089901  0.02306149  0.08764012     0.12300
H587        H  0.71271433  0.02211024  0.23608067     0.15200
H588        H  0.63479501  0.96742487  0.23645212     0.15000
C589        C  0.52262822  0.94075356  0.33260704    -0.17900
C590        C  0.49170661  0.94061571  0.33269353    -0.20100
C591        C  0.47589617  0.96707277  0.32927831     0.20600
C592        C  0.49142158  0.99390675  0.32543247    -0.03000
C593        C  0.52262882  0.99403951  0.32528857    -0.06100
C594        C  0.53827175  0.96734523  0.32905814     0.20900
C595        C  0.53814342  0.02090473  0.32164198     0.19000
C596        C  0.52234414  0.04730517  0.31781861    -0.17500
C597        C  0.49143014  0.04718254  0.31801006    -0.19800
C598        C  0.47579043  0.02065318  0.32200760     0.20500
C599        C  0.44481373  0.02046259  0.32290282    -0.32800
C600        C  0.42914250  0.99387168  0.32705546     0.01200
C601        C  0.44486993  0.96720987  0.32992679    -0.24100
C602        C  0.56926315  0.96772355  0.32942909    -0.28700
C603        C  0.58490963  0.99445261  0.32615278     0.06900
C604        C  0.56915448  0.02093636  0.32210100    -0.27400
H605        H  0.53431952  0.92005644  0.33547055     0.11600
H606        H  0.48014911  0.91981720  0.33562770     0.12700
H607        H  0.53390516  0.06810244  0.31488156     0.11800
H608        H  0.47974239  0.06789224  0.31522507     0.11000
H609        H  0.43289851  0.04109559  0.32041629     0.16400
H610        H  0.43299090  0.94661007  0.33306537     0.12300
H611        H  0.58119240  0.94717806  0.33248934     0.15200
H612        H  0.58100746  0.04161893  0.31942240     0.15000
C613        C  0.18923711  0.04980964  0.31938615    -0.17900
C614        C  0.15829819  0.05007549  0.31935329    -0.20100
C615        C  0.14230578  0.02415578  0.32537995     0.20600
C616        C  0.15765687  0.99762757  0.33126507    -0.03000
C617        C  0.18885232  0.99727650  0.33087531    -0.06100
C618        C  0.20471131  0.02355929  0.32517662     0.20900
C619        C  0.20414110  0.97065993  0.33635133     0.19000
C620        C  0.18817378  0.94467079  0.34210579    -0.17500
C621        C  0.15728420  0.94509810  0.34290039    -0.19800
C622        C  0.14184610  0.97146122  0.33768533     0.20500
C623        C  0.11088901  0.97214461  0.33881608    -0.32800
C624        C  0.09560187  0.99840170  0.33280707     0.01200
C625        C  0.11126670  0.02425353  0.32576309    -0.24100
C626        C  0.23573568  0.02313424  0.32545467    -0.28700
C627        C  0.25111746  0.99668556  0.33097962     0.06900
C628        C  0.23512123  0.97050528  0.33616538    -0.27400
H629        H  0.20107208  0.07015839  0.31488268     0.11600
H630        H  0.14687185  0.07061574  0.31481338     0.12700
H631        H  0.19959364  0.92404316  0.34625280     0.11800
H632        H  0.14545747  0.92479873  0.34764365     0.11000
H633        H  0.09859146  0.95217979  0.34389898     0.16400
H634        H  0.09926620  0.04445859  0.32109005     0.12300
H635        H  0.24789500  0.04335629  0.32118043     0.15200
H636        H  0.24678384  0.95001704  0.34040182     0.15000
C637        C  0.36650100  0.03902127  0.14731409    -0.17900
C638        C  0.36796538  0.03863677  0.17821188    -0.20100
C639        C  0.35082069  0.01851805  0.19440497     0.20600
C640        C  0.33164794  0.99887771  0.17935560    -0.03000
C641        C  0.32962279  0.99977276  0.14820966    -0.06100
C642        C  0.34751943  0.01961574  0.13212709     0.20900
C643        C  0.30993586  0.98062671  0.13316428     0.19000
C644        C  0.29266230  0.96063470  0.14939883    -0.17500
C645        C  0.29516791  0.95928306  0.18023070    -0.19800
C646        C  0.31466039  0.97821255  0.19539548     0.20500
C647        C  0.31748724  0.97687054  0.22628886    -0.32800
C648        C  0.33629541  0.99660038  0.24135400     0.01200
C649        C  0.35261836  0.01758327  0.22535754    -0.24100
C650        C  0.34631831  0.01950167  0.10114064    -0.28700
C651        C  0.32676778  0.00054107  0.08609233     0.06900
C652        C  0.30822189  0.98155288  0.10215494    -0.27400
H653        H  0.38024179  0.05449691  0.13528286     0.11600
H654        H  0.38277195  0.05385757  0.18943458     0.12700
H655        H  0.27746580  0.94577728  0.13821237     0.11800
H656        H  0.28183689  0.94342747  0.19222597     0.11000
H657        H  0.30458130  0.96096020  0.23870591     0.16400
H658        H  0.36713915  0.03278729  0.23701494     0.12300
H659        H  0.36037921  0.03435507  0.08865837     0.15200
H660        H  0.29323164  0.96685798  0.09044219     0.15000
C661        C  0.31635852  0.94688815  0.48189408    -0.17900
C662        C  0.31449036  0.94797100  0.51279990    -0.20100
C663        C  0.32404161  0.97315608  0.52841099     0.20600
C664        C  0.33530499  0.99760695  0.51268023    -0.03000
C665        C  0.33721613  0.99650321  0.48151007    -0.06100
C666        C  0.32780499  0.97097295  0.46603849     0.20900
C667        C  0.34850982  0.02098325  0.46585461     0.19000
C668        C  0.35794323  0.04620553  0.48141709    -0.17500
C669        C  0.35607787  0.04728540  0.51226039    -0.19800
C670        C  0.34475859  0.02315785  0.52807781     0.20500
C671        C  0.34296338  0.02408705  0.55902519    -0.32800
C672        C  0.33226700  0.99965336  0.57492538     0.01200
C673        C  0.32274436  0.97427260  0.55944672    -0.24100
C674        C  0.32980419  0.97011517  0.43501413    -0.28700
C675        C  0.34061615  0.99466390  0.41927457     0.06900
C676        C  0.34998792  0.01994614  0.43490313    -0.27400
H677        H  0.30887736  0.92717542  0.47038703     0.11600
H678        H  0.30566167  0.92904822  0.52450842     0.12700
H679        H  0.36672605  0.06515273  0.46971370     0.11800
H680        H  0.36351340  0.06702106  0.52375909     0.11000
H681        H  0.35046708  0.04365799  0.57079129     0.16400
H682        H  0.31430753  0.95540623  0.57155436     0.12300
H683        H  0.32232786  0.95063504  0.42308396     0.15200
H684        H  0.35845254  0.03888947  0.42292937     0.15000
C685        C  0.31367250  0.95169867  0.81476627    -0.17900
C686        C  0.31213930  0.95177519  0.84565150    -0.20100
C687        C  0.31904935  0.97745539  0.86175781     0.20600
C688        C  0.32746378  0.00340900  0.84659670    -0.03000
C689        C  0.32854199  0.00346125  0.81539000    -0.06100
C690        C  0.32184796  0.97739431  0.79945818     0.20900
C691        C  0.33641691  0.02952651  0.80016634     0.19000
C692        C  0.34332767  0.05522236  0.81631075    -0.17500
C693        C  0.34277313  0.05503201  0.84727035    -0.19800
C694        C  0.33495613  0.02924124  0.86261398     0.20500
C695        C  0.33460264  0.02872211  0.89366036    -0.32800
C696        C  0.32597678  0.00301115  0.90869824     0.01200
C697        C  0.31792081  0.97759104  0.89275026    -0.24100
C698        C  0.32344873  0.97743854  0.76850090    -0.28700
C699        C  0.33112338  0.00332919  0.75312078     0.06900
C700        C  0.33735962  0.02937477  0.76910547    -0.27400
H701        H  0.30840911  0.93153196  0.80283584     0.11600
H702        H  0.30573065  0.93166872  0.85696150     0.12700
H703        H  0.34939293  0.07542360  0.80498997     0.11800
H704        H  0.34844350  0.07507940  0.85922214     0.11000
H705        H  0.34069460  0.04833035  0.90616952     0.16400
H706        H  0.31147972  0.95775247  0.90455354     0.12300
H707        H  0.31833262  0.95735514  0.75633560     0.15200
H708        H  0.34331997  0.04939898  0.75739543     0.15000
C709        C  0.18052996  0.05001648  0.64177578    -0.17900
C710        C  0.14960613  0.04992351  0.64201687    -0.20100
C711        C  0.13404510  0.02651313  0.65511628     0.20600
C712        C  0.14979354  0.00300637  0.66823837    -0.03000
C713        C  0.18098776  0.00280217  0.66744426    -0.06100
C714        C  0.19640904  0.02650510  0.65427271     0.20900
C715        C  0.19671150  0.97885475  0.67974652     0.19000
C716        C  0.18115232  0.95564683  0.69321805    -0.17500
C717        C  0.15025951  0.95613629  0.69453256    -0.19800
C718        C  0.13438108  0.97964875  0.68205682     0.20500
C719        C  0.10338048  0.98015915  0.68298571    -0.32800
C720        C  0.08767382  0.00313504  0.66934008     0.01200
C721        C  0.10303478  0.02613866  0.65529982    -0.24100
C722        C  0.22741503  0.02622254  0.65372646    -0.28700
C723        C  0.24320692  0.00221546  0.66551803     0.06900
C724        C  0.22769681  0.97855178  0.67837994    -0.27400
H725        H  0.19203483  0.06838294  0.63159365     0.11600
H726        H  0.13785162  0.06820601  0.63200064     0.12700
H727        H  0.19289154  0.93714245  0.70283490     0.11800
H728        H  0.13876701  0.93800427  0.70513771     0.11000
H729        H  0.09140136  0.96235956  0.69366344     0.16400
H730        H  0.09079314  0.04396724  0.64499810     0.12300
H731        H  0.23926409  0.04447496  0.64369679     0.15200
H732        H  0.23977793  0.96011951  0.68774997     0.15000
C733        C  0.66693917  0.05136000  0.47812601    -0.17900
C734        C  0.66623340  0.05244378  0.50901706    -0.20100
C735        C  0.66682314  0.02626702  0.52558247     0.20600
C736        C  0.66788740  0.99868769  0.51087347    -0.03000
C737        C  0.66860173  0.99759135  0.47967027    -0.06100
C738        C  0.66826274  0.02408100  0.46328377     0.20900
C739        C  0.66985600  0.97004245  0.46490792     0.19000
C740        C  0.67004704  0.94385052  0.48149897    -0.17500
C741        C  0.66935041  0.94493529  0.51243584    -0.19800
C742        C  0.66843014  0.97223146  0.52732129     0.20500
C743        C  0.66817120  0.97354927  0.55833843    -0.32800
C744        C  0.66730079  0.00098200  0.57317215     0.01200
C745        C  0.66650052  0.02722609  0.55658271    -0.24100
C746        C  0.66944097  0.02289362  0.43234791    -0.28700
C747        C  0.67104585  0.99558307  0.41740520     0.06900
C748        C  0.67107724  0.96920847  0.43386403    -0.27400
H749        H  0.66659613  0.07189184  0.46583237     0.11600
H750        H  0.66535344  0.07378732  0.51996394     0.12700
H751        H  0.67089863  0.92250815  0.47054686     0.11800
H752        H  0.66967295  0.92440576  0.52473394     0.11000
H753        H  0.66865974  0.95318218  0.57091934     0.16400
H754        H  0.66577254  0.04845554  0.56778757     0.12300
H755        H  0.66927073  0.04334910  0.41990211     0.15200
H756        H  0.67212816  0.94805254  0.42254825     0.15000
C757        C  0.48394284  0.95240318  0.64316084    -0.17900
C758        C  0.51486621  0.95281643  0.64255675    -0.20100
C759        C  0.53050993  0.97821791  0.65135621     0.20600
C760        C  0.51482582  0.00361470  0.66046016    -0.03000
C761        C  0.48360531  0.00320130  0.66105693    -0.06100
C762        C  0.46810820  0.97739100  0.65255374     0.20900
C763        C  0.46793407  0.02854996  0.67030177     0.19000
C764        C  0.48356763  0.05405722  0.67881520    -0.17500
C765        C  0.51448627  0.05445543  0.67825359    -0.19800
C766        C  0.53031696  0.02935658  0.66916175     0.20500
C767        C  0.56134205  0.02947135  0.66885797    -0.32800
C768        C  0.57714959  0.00407447  0.66029595     0.01200
C769        C  0.56153610  0.97858010  0.65143579    -0.24100
C770        C  0.43708411  0.97700377  0.65364112    -0.28700
C771        C  0.42130044  0.00220545  0.66278237     0.06900
C772        C  0.43692780  0.02793417  0.67094472    -0.27400
H773        H  0.47240270  0.93246156  0.63640467     0.11600
H774        H  0.52656354  0.93317718  0.63536887     0.12700
H775        H  0.47187133  0.07370123  0.68599281     0.11800
H776        H  0.52602972  0.07438915  0.68503175     0.11000
H777        H  0.57318783  0.04920426  0.67575020     0.16400
H778        H  0.57353691  0.95898705  0.64458913     0.12300
H779        H  0.42521155  0.95717132  0.64709633     0.15200
H780        H  0.42495107  0.04744338  0.67807225     0.15000
C781        C  0.81567622  0.97959624  0.71431039    -0.17900
C782        C  0.84656626  0.98050483  0.71572251    -0.20100
C783        C  0.86294502  0.99367844  0.69294545     0.20600
C784        C  0.84802599  0.00655014  0.66874558    -0.03000
C785        C  0.81685054  0.00619061  0.66763025    -0.06100
C786        C  0.80062847  0.99221438  0.69030311     0.20900
C787        C  0.80193870  0.01961027  0.64372291     0.19000
C788        C  0.81829448  0.03300087  0.62106627    -0.17500
C789        C  0.84919884  0.03277070  0.62184482    -0.19800
C790        C  0.86424474  0.01951976  0.64550529     0.20500
C791        C  0.89521055  0.01877459  0.64620830    -0.32800
C792        C  0.91019273  0.00590606  0.67018293     0.01200
C793        C  0.89396086  0.99385389  0.69372233    -0.24100
C794        C  0.76967351  0.99108243  0.68850391    -0.28700
C795        C  0.75481156  0.00466393  0.66491029     0.06900
C796        C  0.77095273  0.01922775  0.64282529    -0.27400
H797        H  0.80354532  0.96898890  0.73199803     0.11600
H798        H  0.85766873  0.97056421  0.73446390     0.12700
H799        H  0.80718066  0.04337609  0.60256977     0.11800
H800        H  0.86134401  0.04293910  0.60390894     0.11000
H801        H  0.90770149  0.02840754  0.62818878     0.16400
H802        H  0.90548457  0.98386088  0.71220163     0.12300
H803        H  0.75706491  0.98020775  0.70571939     0.15200
H804        H  0.75934756  0.02968599  0.62465008     0.15000
C805        C  0.70125997  0.04482519  0.84503619    -0.17900
C806        C  0.70001212  0.04624006  0.81412714    -0.20100
C807        C  0.68263423  0.02605386  0.79802698     0.20600
C808        C  0.66619297  0.00434406  0.81326783    -0.03000
C809        C  0.66697322  0.00330532  0.84445740    -0.06100
C810        C  0.68485023  0.02344986  0.86039752     0.20900
C811        C  0.64990356  0.98206582  0.85966568     0.19000
C812        C  0.63267943  0.96176249  0.84360040    -0.17500
C813        C  0.63243375  0.96236419  0.81269139    -0.19800
C814        C  0.64905798  0.98356281  0.79735635     0.20500
C815        C  0.64893973  0.98423989  0.76638631    -0.32800
C816        C  0.66506157  0.00589101  0.75106530     0.01200
C817        C  0.68159655  0.02697422  0.76698049    -0.24100
C818        C  0.68591076  0.02186056  0.89138939    -0.28700
C819        C  0.66854881  0.00108045  0.90657657     0.06900
C820        C  0.65041197  0.98145521  0.89065859    -0.27400
H821        H  0.71499534  0.06052865  0.85694254     0.11600
H822        H  0.71282092  0.06299240  0.80279685     0.12700
H823        H  0.61953949  0.94527613  0.85494562     0.11800
H824        H  0.61913762  0.94629906  0.80076743     0.11000
H825        H  0.63606251  0.96804443  0.75413942     0.16400
H826        H  0.69428022  0.04351222  0.75517163     0.12300
H827        H  0.69968574  0.03719166  0.90376768     0.15200
H828        H  0.63714454  0.96535023  0.90243889     0.15000
C829        C  0.35897961  0.85127734  0.94821715    -0.17900
C830        C  0.35951090  0.82029539  0.94777518    -0.20100
C831        C  0.34733316  0.80403251  0.97120366     0.20600
C832        C  0.33439468  0.81918281  0.99526930    -0.03000
C833        C  0.33332889  0.85040282  0.99543778    -0.06100
C834        C  0.34592384  0.86654018  0.97190998     0.20900
C835        C  0.31958764  0.86544671  0.01912574     0.19000
C836        C  0.30764243  0.84924916  0.04266856    -0.17500
C837        C  0.30922525  0.81836851  0.04278010    -0.19800
C838        C  0.32243402  0.80315747  0.01916308     0.20500
C839        C  0.32373922  0.77219425  0.01900044    -0.32800
C840        C  0.33620009  0.75687958  0.99496646     0.01200
C841        C  0.34783449  0.77293018  0.97103484    -0.24100
C842        C  0.34508797  0.89761078  0.97249175    -0.28700
C843        C  0.33090873  0.91253553  0.99575474     0.06900
C844        C  0.31802436  0.89641335  0.01884601    -0.27400
H845        H  0.36864100  0.86330779  0.92992934     0.11600
H846        H  0.36956420  0.80904853  0.92914885     0.12700
H847        H  0.29714429  0.86047985  0.06106076     0.17200
H848        H  0.29992553  0.80635778  0.06126589     0.11000
H849        H  0.31453308  0.75995354  0.03740420     0.16400
H850        H  0.35759735  0.76123398  0.95251006     0.12300
H851        H  0.35481987  0.91019470  0.95459061     0.15200
H852        H  0.30725119  0.90807894  0.03683757     0.15000
C853        C  0.18503315  0.63962959  0.04210003    -0.17900
C854        C  0.15410336  0.63884595  0.04184734    -0.20100
C855        C  0.13818571  0.65268422  0.01910794     0.20600
C856        C  0.15360331  0.66740458  0.99633466    -0.03000
C857        C  0.18481894  0.66765474  0.99626199    -0.06100
C858        C  0.20058638  0.65391344  0.01939943     0.20900
C859        C  0.20022072  0.68166444  0.97305157     0.19000
C860        C  0.18430664  0.69565354  0.95040818    -0.17500
C861        C  0.15338679  0.69595198  0.95080934    -0.19800
C862        C  0.13784049  0.68191258  0.97364508     0.20500
C863        C  0.10682938  0.68210379  0.97420667    -0.32800
C864        C  0.09146155  0.66710920  0.99654754     0.01200
C865        C  0.10715026  0.65219039  0.01875929    -0.24100
C866        C  0.23160617  0.65463684  0.01937157    -0.28700
C867        C  0.24707946  0.66820567  0.99609997     0.06900
C868        C  0.23124275  0.68149384  0.97292241    -0.27400
H869        H  0.19680370  0.62892096  0.05998981     0.11600
H870        H  0.14262046  0.62754875  0.05954045     0.12700
H871        H  0.19578921  0.70653601  0.93245644     0.11800
H872        H  0.14161826  0.70707208  0.93317376     0.11000
H873        H  0.09457726  0.69343713  0.95700845     0.16400
H874        H  0.09514516  0.64079806  0.03607193     0.12300
H875        H  0.24373953  0.64416566  0.03718313     0.15200
H876        H  0.24309078  0.69213012  0.95503844     0.15000
C877        C  0.48921043  0.65895983  0.94499349    -0.17900
C878        C  0.52015941  0.65933833  0.94598138    -0.20100
C879        C  0.53508283  0.66311155  0.97300549     0.20600
C880        C  0.51865270  0.66623480  0.99931736    -0.03000
C881        C  0.48745437  0.66590599  0.99831241    -0.06100
C882        C  0.47263368  0.66238562  0.97100921     0.20900
C883        C  0.47112449  0.66927692  0.02464599     0.19000
C884        C  0.48599580  0.67268656  0.05169979    -0.17500
C885        C  0.51685859  0.67293760  0.05270333    -0.19800
C886        C  0.53336883  0.66982484  0.02666288     0.20500
C887        C  0.56432700  0.67031338  0.02754461    -0.32800
C888        C  0.58090581  0.66747165  0.00143950     0.01200
C889        C  0.56610396  0.66386091  0.97421746    -0.24100
C890        C  0.44155124  0.66254583  0.97024416    -0.28700
C891        C  0.42515267  0.66620288  0.99645943     0.06900
C892        C  0.44019993  0.66937044  0.02353610    -0.27400
H893        H  0.47823544  0.65613693  0.92384542     0.11600
H894        H  0.53242997  0.65678380  0.92557617     0.12700
H895        H  0.47373773  0.67525910  0.07211049     0.11800
H896        H  0.52782603  0.67567915  0.07386620     0.11000
H897        H  0.57551958  0.67306236  0.04860421     0.16400
H898        H  0.57871112  0.66142020  0.95399184     0.12300
H899        H  0.43016641  0.65996117  0.94927130     0.15200
H900        H  0.42782871  0.67211192  0.04387016     0.15000
C901        C  0.71172155  0.84711139  0.96274403    -0.17900
C902        C  0.71142934  0.81615215  0.96347490    -0.20100
C903        C  0.69216351  0.80105654  0.98250569     0.20600
C904        C  0.67311079  0.81732984  0.00112655    -0.03000
C905        C  0.67292430  0.84853232  0.99989385    -0.06100
C906        C  0.69244450  0.86350224  0.98071149     0.20900
C907        C  0.65307100  0.86471623  0.01771608     0.19000
C908        C  0.63420754  0.84967290  0.03716797    -0.17500
C909        C  0.63485828  0.81879608  0.03886763    -0.19800
C910        C  0.65407483  0.80243510  0.02082837     0.20500
C911        C  0.65438058  0.77144187  0.02193128    -0.32800
C912        C  0.67269521  0.75512580  0.00288271     0.01200
C913        C  0.69147970  0.77000610  0.98316752    -0.24100
C914        C  0.69215825  0.89455761  0.97970615    -0.28700
C915        C  0.67190133  0.91067852  0.99686321     0.06900
C916        C  0.65237789  0.89564614  0.01572051    -0.27400
H917        H  0.72682754  0.85823768  0.94788899     0.11600
H918        H  0.72630077  0.80400471  0.94915355     0.12700
H919        H  0.61895542  0.86180028  0.05110005     0.11800
H920        H  0.62009852  0.80768755  0.05407999     0.11000
H921        H  0.63978405  0.75994037  0.03704208     0.16400
H922        H  0.70582328  0.75739092  0.96867750     0.12300
H923        H  0.70716781  0.90617539  0.96510170     0.15200
H924        H  0.63699261  0.90812055  0.02923110     0.15000
C925        C  0.85246140  0.71020413  0.03338303    -0.17900
C926        C  0.82163428  0.70897389  0.03578250    -0.20100
C927        C  0.80550655  0.68680530  0.02105336     0.20600
C928        C  0.82063041  0.66564881  0.00372470    -0.03000
C929        C  0.85176436  0.66652958  0.00179914    -0.06100
C930        C  0.86773319  0.68904705  0.01654325     0.20900
C931        C  0.86688979  0.64484641  0.98516272     0.19000
C932        C  0.85076953  0.62292981  0.97008587    -0.17500
C933        C  0.81989427  0.62247816  0.97141557    -0.19800
C934        C  0.80465032  0.64366722  0.98820983     0.20500
C935        C  0.77370264  0.64340580  0.98956835    -0.32800
C936        C  0.75856619  0.66420604  0.00696941     0.01200
C937        C  0.77453074  0.68560068  0.02300586    -0.24100
C938        C  0.89868086  0.68983104  0.01437826    -0.28700
C939        C  0.91385888  0.66783891  0.99847608     0.06900
C940        C  0.89785832  0.64539759  0.98398659    -0.27400
H941        H  0.86438585  0.72760422  0.04487415     0.11600
H942        H  0.81038434  0.72547994  0.04903128     0.12700
H943        H  0.86204543  0.60619741  0.95714267     0.11800
H944        H  0.80793157  0.60545418  0.95941045     0.11000
H945        H  0.76130681  0.62692477  0.97720203     0.16400
H946        H  0.76275956  0.70190626  0.03608115     0.12300
H947        H  0.91103508  0.70703858  0.02574242     0.15200
H948        H  0.90954839  0.62855547  0.97152789     0.15000
C949        C  0.32128921  0.51509654  0.94684739    -0.17900
C950        C  0.32050594  0.48419451  0.94763863    -0.20100
C951        C  0.32539950  0.46911878  0.97427253     0.20600
C952        C  0.33089075  0.48529893  0.00045042    -0.03000
C953        C  0.33171140  0.51650307  0.99964384    -0.06100
C954        C  0.32700220  0.53143813  0.97267240     0.20900
C955        C  0.33734655  0.53272030  0.02577018     0.19000
C956        C  0.34197825  0.51762811  0.05246352    -0.17500
C957        C  0.34114007  0.48669163  0.05326684    -0.19800
C958        C  0.33566957  0.47031887  0.02738701     0.20500
C959        C  0.33498794  0.43926464  0.02792249    -0.32800
C960        C  0.32979159  0.42300222  0.00182294     0.01200
C961        C  0.32497178  0.43814842  0.97512476    -0.24100
C962        C  0.32816409  0.56242950  0.97195564    -0.28700
C963        C  0.33387702  0.57876604  0.99786469     0.06900
C964        C  0.33833161  0.56371796  0.02472072    -0.27400
H965        H  0.31753367  0.52622249  0.92598768     0.11600
H966        H  0.31616303  0.47206702  0.92737011     0.12700
H967        H  0.34631603  0.52976032  0.07273059     0.11800
H968        H  0.34484779  0.47556252  0.07413312     0.11000
H969        H  0.33871233  0.42777173  0.04860131     0.16400
H970        H  0.32076711  0.42582352  0.95493017     0.12300
H971        H  0.32454184  0.57382847  0.95120597     0.15200
H972        H  0.34271429  0.57611758  0.04483108     0.15000
C973        C  0.17690670  0.35448459  0.05536591    -0.17900
C974        C  0.14599234  0.35396540  0.05604389    -0.20100
C975        C  0.12984272  0.34350277  0.03161381     0.20600
C976        C  0.14498158  0.33360639  0.00615693    -0.03000
C977        C  0.17615015  0.33469324  0.00525929    -0.06100
C978        C  0.19218020  0.34491183  0.03010267     0.20900
C979        C  0.19124696  0.32542976  0.97956726     0.19000
C980        C  0.17509529  0.31501764  0.95510877    -0.17500
C981        C  0.14423206  0.31346189  0.95617744    -0.19800
C982        C  0.12898596  0.32260402  0.98160123     0.20500
C983        C  0.09803930  0.32109085  0.98287765    -0.32800
C984        C  0.08295651  0.33135223  0.00795985     0.01200
C985        C  0.09884108  0.34278055  0.03213181    -0.24100
C986        C  0.22318287  0.34523812  0.02929855    -0.28700
C987        C  0.23836701  0.33603424  0.00377460     0.06900
C988        C  0.22222459  0.32647965  0.97888249    -0.27400
H989        H  0.18887890  0.36244758  0.07459494     0.11600
H990        H  0.13471023  0.36158489  0.07576017     0.12700
H991        H  0.18635754  0.30784295  0.93521499     0.11800
H992        H  0.13227442  0.30515143  0.93708454     0.11000
H993        H  0.08559186  0.31268921  0.96410921     0.16400
H994        H  0.08701971  0.35074431  0.05141858     0.12300
H995        H  0.23550135  0.35280511  0.04848546     0.15200
H996        H  0.23380226  0.31921278  0.95918634     0.15000
C997        C  0.28636869  0.18374645  0.96184301    -0.17900
C998        C  0.28542501  0.15278864  0.96191867    -0.20100
C999        C  0.30324855  0.13664881  0.98150294     0.20600
C1000       C  0.32205641  0.15188478  0.00137498    -0.03000
C1001       C  0.32250993  0.18308884  0.00175948    -0.06100
C1002       C  0.30482977  0.19908507  0.98165305     0.20900
C1003       C  0.34078803  0.19825712  0.02215808     0.19000
C1004       C  0.35877131  0.18216254  0.04159293    -0.17500
C1005       C  0.35883680  0.15125460  0.04073819    -0.19800
C1006       C  0.34058537  0.13595403  0.02074240     0.20500
C1007       C  0.34069173  0.10500056  0.01964717    -0.32800
C1008       C  0.32189174  0.08973253  0.00011446     0.01200
C1009       C  0.30290005  0.10557587  0.98137919    -0.24100
C1010       C  0.30601343  0.23011009  0.98171054    -0.28700
C1011       C  0.32386748  0.24522867  0.00227323     0.06900
C1012       C  0.34092710  0.22924865  0.02261989    -0.27400
H1013       H  0.27259493  0.19570017  0.94633769     0.11600
H1014       H  0.27094488  0.14145794  0.94646449     0.12700
H1015       H  0.37298399  0.19349136  0.05729488     0.11800
H1016       H  0.37312279  0.13930254  0.05577840     0.11000
H1017       H  0.35521363  0.09269176  0.03420494     0.16400
H1018       H  0.28860843  0.09371570  0.96611809     0.12300
H1019       H  0.29271551  0.24254014  0.96613440     0.15200
H1020       H  0.35487698  0.24098951  0.03829039     0.15000
C1021       C  0.65413801  0.48454679  0.95285933    -0.17900
C1022       C  0.65564316  0.51540846  0.95307788    -0.20100
C1023       C  0.65842277  0.53089752  0.97987336     0.20600
C1024       C  0.65906101  0.51522568  0.00679736    -0.03000
C1025       C  0.65748097  0.48402432  0.00658014    -0.06100
C1026       C  0.65534859  0.46867752  0.97943588     0.20900
C1027       C  0.65854797  0.46819775  0.03342274     0.19000
C1028       C  0.66059854  0.48380643  0.06026434    -0.17500
C1029       C  0.66217524  0.51476777  0.06047895    -0.19800
C1030       C  0.66172730  0.53068046  0.03385615     0.20500
C1031       C  0.66423134  0.56169505  0.03373335    -0.32800
C1032       C  0.66415773  0.57738737  0.00686885     0.01200
C1033       C  0.66092857  0.56176314  0.98010595    -0.24100
C1034       C  0.65499602  0.43771460  0.97922851    -0.28700
C1035       C  0.65679167  0.42166833  0.00576686     0.06900
C1036       C  0.65808715  0.43708701  0.03286208    -0.27400
H1037       H  0.65236137  0.47306123  0.93185052     0.11600
H1038       H  0.65497085  0.52715876  0.93223733     0.12700
H1039       H  0.66132125  0.47204722  0.08109597     0.11800
H1040       H  0.66405569  0.52625804  0.08147497     0.11000
H1041       H  0.66644271  0.57356287  0.05450076     0.16400
H1042       H  0.66056291  0.57361726  0.95930304     0.12300
H1043       H  0.65373848  0.42609017  0.95824455     0.15200
H1044       H  0.65935487  0.42491298  0.05344041     0.15000
C1045       C  0.47866780  0.30960705  0.05091286    -0.17900
C1046       C  0.50959735  0.30915398  0.05079969    -0.20100
C1047       C  0.52534495  0.31833411  0.02572437     0.20600
C1048       C  0.50975762  0.32752942  0.00030381    -0.03000
C1049       C  0.47854057  0.32795130  0.00040384    -0.06100
C1050       C  0.46294681  0.31921537  0.02593922     0.20900
C1051       C  0.46297104  0.33740604  0.97506460     0.19000
C1052       C  0.47870595  0.34619305  0.94985316    -0.17500
C1053       C  0.50962101  0.34581866  0.94977051    -0.19800
C1054       C  0.52534254  0.33663164  0.97489244     0.20500
C1055       C  0.55635524  0.33674376  0.97515747    -0.32800
C1056       C  0.57206517  0.32822090  0.00061688     0.01200
C1057       C  0.55637337  0.31882510  0.02574464    -0.24100
C1058       C  0.43194437  0.32047081  0.02612168    -0.28700
C1059       C  0.41628315  0.33001603  0.00098590     0.06900
C1060       C  0.43196907  0.33816467  0.97545332    -0.27400
H1061       H  0.46703753  0.30265172  0.07063686     0.11600
H1062       H  0.52121460  0.30187173  0.07044243     0.12700
H1063       H  0.46709326  0.35352900  0.93022841     0.11800
H1064       H  0.52124971  0.35288863  0.93008702     0.11000
H1065       H  0.56826088  0.34403311  0.95570456     0.16400
H1066       H  0.56830916  0.31199550  0.04537728     0.12300
H1067       H  0.41998896  0.31390568  0.04580368     0.15200
H1068       H  0.42005433  0.34559544  0.95602891     0.15000
C1069       C  0.81360665  0.35420179  0.95438452    -0.17900
C1070       C  0.84454309  0.35408157  0.95501321    -0.20100
C1071       C  0.85976609  0.34471472  0.98037629     0.20600
C1072       C  0.84364684  0.33555685  0.00545718    -0.03000
C1073       C  0.81243011  0.33619168  0.00499872    -0.06100
C1074       C  0.79734231  0.34526699  0.97922279     0.20900
C1075       C  0.79634717  0.32754304  0.03025081     0.19000
C1076       C  0.81156321  0.31825185  0.05565599    -0.17500
C1077       C  0.84246838  0.31713095  0.05593971    -0.19800
C1078       C  0.85870634  0.32562411  0.03094852     0.20500
C1079       C  0.88971142  0.32438051  0.03096600    -0.32800
C1080       C  0.90576616  0.33385307  0.00621474     0.01200
C1081       C  0.89079256  0.34423780  0.98110752    -0.24100
C1082       C  0.76629014  0.34503834  0.97867318    -0.28700
C1083       C  0.75010812  0.33636269  0.00374193     0.06900
C1084       C  0.76534225  0.32800651  0.02955930    -0.27400
H1085       H  0.80238967  0.36129891  0.93444529     0.11600
H1086       H  0.85657478  0.36112346  0.93556324     0.12700
H1087       H  0.79953984  0.31156733  0.07523557     0.11800
H1088       H  0.85368031  0.30962504  0.07573246     0.11000
H1089       H  0.90142899  0.31658078  0.05037533     0.16400
H1090       H  0.90334173  0.35142649  0.96201342     0.12300
H1091       H  0.75471441  0.35171092  0.95877351     0.15200
H1092       H  0.75305179  0.32119315  0.04894525     0.15000
C1093       C  0.62562069  0.18137772  0.96098682    -0.17900
C1094       C  0.62557088  0.15040620  0.96119628    -0.20100
C1095       C  0.64614036  0.13483626  0.97841571     0.20600
C1096       C  0.66709657  0.15065129  0.99545926    -0.03000
C1097       C  0.66671581  0.18187916  0.99577073    -0.06100
C1098       C  0.64595646  0.19731133  0.97833006     0.20900
C1099       C  0.68693428  0.19763239  0.01374371     0.19000
C1100       C  0.70791822  0.18210282  0.03045342    -0.17500
C1101       C  0.70875013  0.15118811  0.02959545    -0.19800
C1102       C  0.68831258  0.13527929  0.01237357     0.20500
C1103       C  0.68859840  0.10427267  0.01193749    -0.32800
C1104       C  0.66738717  0.08839576  0.99557829     0.01200
C1105       C  0.64612939  0.10376675  0.97895813    -0.24100
C1106       C  0.64571104  0.22836984  0.97884850    -0.28700
C1107       C  0.66517787  0.24403525  0.99742689     0.06900
C1108       C  0.68566645  0.22861224  0.01484495    -0.27400
H1109       H  0.60952303  0.19287849  0.94750361     0.11600
H1110       H  0.60944332  0.13862264  0.94786448     0.12700
H1111       H  0.72369802  0.19387719  0.04420739     0.11800
H1112       H  0.72518034  0.13969901  0.04267909     0.11000
H1113       H  0.70496065  0.09243217  0.02482848     0.16400
H1114       H  0.62997661  0.09152482  0.96604342     0.12300
H1115       H  0.62981078  0.24037091  0.96553276     0.15200
H1116       H  0.70083629  0.24080822  0.02895569     0.15000
loop_ 
_geom_bond_atom_site_label_1 
_geom_bond_atom_site_label_2 
_geom_bond_distance 
_geom_bond_site_symmetry_2 
_ccdc_geom_bond_type 
O1            V9   1.901       .  S
O1           C11   1.265   1_554  A
O2            V9   1.906       .  S
O2           C12   1.266       .  A
O3            V9   1.902       .  S
O3           C13   1.265       .  A
O4            V9   1.898       .  S
O4           C14   1.264       .  A
O5           V10   1.906       .  S
O5           C14   1.266   1_556  A
O6           V10   1.900       .  S
O6           C13   1.265   1_556  A
O7           V10   1.894       .  S
O7           C12   1.264   1_556  A
O8           V10   1.900       .  S
O8           C11   1.263       .  A
V9           V10   2.086   1_554  T
C11        C1107   1.471       .  S
C12        C1035   1.482       .  S
C13        C1056   1.481       .  S
C14        C1083   1.482       .  S
O15          V23   1.898       .  S
O15          C25   1.264   1_556  A
O16          V23   1.903       .  S
O16          C26   1.266   1_556  A
O17          V23   1.897       .  S
O17          C27   1.263   1_556  A
O18          V23   1.896       .  S
O18          C28   1.264   1_556  A
O19          V24   1.902       .  S
O19          C28   1.265       .  A
O20          V24   1.900       .  S
O20          C27   1.265       .  A
O21          V24   1.899       .  S
O21          C26   1.264       .  A
O22          V24   1.902       .  S
O22          C25   1.265       .  A
V23          V24   2.087   1_556  T
C25         C987   1.478       .  S
C26        C1059   1.480       .  S
C27        C1011   1.470       .  S
C28         C960   1.480       .  S
O29          V37   1.908       .  S
O29          C39   1.266       .  A
O30          V37   1.901       .  S
O30          C40   1.266       .  A
O31          V37   1.904       .  S
O31          C41   1.266       .  A
O32          V37   1.898       .  S
O32          C42   1.264       .  A
O33          V38   1.903       .  S
O33          C42   1.265   1_556  A
O34          V38   1.896       .  S
O34          C41   1.265   1_556  A
O35          V38   1.899       .  S
O35          C40   1.264   1_556  A
O36          V38   1.894       .  S
O36          C39   1.263   1_556  A
V37          V38   2.084   1_554  T
C39         C936   1.472       .  S
C40         C888   1.480       .  S
C41        C1032   1.481       .  S
C42         C912   1.473       .  S
O43          V51   1.899       .  S
O43          C53   1.264   1_554  A
O44          V51   1.897       .  S
O44          C54   1.265   1_554  A
O45          V51   1.897       .  S
O45          C55   1.265   1_554  A
O46          V51   1.895       .  S
O46          C56   1.264   1_554  A
O47          V52   1.904       .  S
O47          C56   1.266       .  A
O48          V52   1.905       .  S
O48          C55   1.266       .  A
O49          V52   1.905       .  S
O49          C54   1.265       .  A
O50          V52   1.904       .  S
O50          C53   1.266       .  A
V51          V52   2.084   1_554  T
C53         C867   1.478       .  S
C54         C891   1.482       .  S
C55         C840   1.479       .  S
C56         C963   1.480       .  S
O57          V65   1.904       .  S
O57          C67   1.265   1_565  A
O58          V65   1.902       .  S
O58          C68   1.266   1_565  A
O59          V65   1.898       .  S
O59          C69   1.265   1_565  A
O60          V65   1.894       .  S
O60          C70   1.264   1_565  A
O61          V66   1.906       .  S
O61          C70   1.266       .  A
O62          V66   1.902       .  S
O62          C69   1.266       .  A
O63          V66   1.901       .  S
O63          C68   1.265       .  A
O64          V66   1.897       .  S
O64          C67   1.263       .  A
V65          V66   2.083   1_565  T
C67         C795   1.469       .  S
C68         C768   1.481       .  S
C69         C744   1.481       .  S
C70         C816   1.475       .  S
O71          V79   1.901       .  S
O71          C81   1.265   1_565  A
O72          V79   1.906       .  S
O72          C82   1.267   1_565  A
O73          V79   1.898       .  S
O73          C83   1.265   1_565  A
O74          V79   1.900       .  S
O74          C84   1.264   1_565  A
O75          V80   1.902       .  S
O75          C84   1.266       .  A
O76          V80   1.904       .  S
O76          C83   1.266       .  A
O77          V80   1.898       .  S
O77          C82   1.264       .  A
O78          V80   1.900       .  S
O78          C81   1.265       .  A
V79          V80   2.085   1_565  T
C81         C723   1.478       .  S
C82         C771   1.482       .  S
C83         C699   1.480       .  S
C84         C672   1.480   1_545  S
O85          V93   1.902       .  S
O85          C95   1.265   1_545  A
O86          V93   1.897       .  S
O86          C96   1.264   1_545  A
O87          V93   1.897       .  S
O87          C97   1.263   1_545  A
O88          V93   1.899       .  S
O88          C98   1.265   1_545  A
O89          V94   1.905       .  S
O89          C98   1.265       .  A
O90          V94   1.903       .  S
O90          C97   1.265       .  A
O91          V94   1.905       .  S
O91          C96   1.266       .  A
O92          V94   1.897       .  S
O92          C95   1.264       .  A
V93          V94   2.087   1_545  T
C95         C627   1.480       .  S
C96         C600   1.481       .  S
C97         C648   1.473       .  S
C98         C675   1.480       .  S
O99         V107   1.900       .  S
O99         C109   1.265   1_545  A
O100        V107   1.902       .  S
O100        C110   1.266   1_545  A
O101        V107   1.895       .  S
O101        C111   1.264   1_545  A
O102        V107   1.898       .  S
O102        C112   1.263   1_545  A
O103        V108   1.902       .  S
O103        C112   1.264       .  A
O104        V108   1.905       .  S
O104        C111   1.266       .  A
O105        V108   1.896       .  S
O105        C110   1.264       .  A
O106        V108   1.904       .  S
O106        C109   1.266       .  A
V107        V108   2.084   1_545  T
C109        C552   1.480       .  S
C110        C603   1.480       .  S
C111        C747   1.481       .  S
C112        C579   1.468       .  S
O113        V121   1.899       .  S
O113        C123   1.263   1_455  A
O114        V121   1.902       .  S
O114        C124   1.266   1_455  A
O115        V121   1.894       .  S
O115        C125   1.264   1_455  A
O116        V121   1.899       .  S
O116        C126   1.265   1_455  A
O117        V122   1.901       .  S
O117        C126   1.265       .  A
O118        V122   1.904       .  S
O118        C125   1.266       .  A
O119        V122   1.897       .  S
O119        C124   1.264       .  A
O120        V122   1.901       .  S
O120        C123   1.264       .  A
V121        V122   2.085   1_455  T
C123        C507   1.467       .  S
C124        C480   1.480       .  S
C125        C459   1.479       .  S
C126        C528   1.476       .  S
O127        V135   1.902       .  S
O127        C137   1.265       .  A
O128        V135   1.903       .  S
O128        C138   1.266       .  A
O129        V135   1.901       .  S
O129        C139   1.265       .  A
O130        V135   1.904       .  S
O130        C140   1.266       .  A
O131        V136   1.895       .  S
O131        C140   1.263   1_655  A
O132        V136   1.898       .  S
O132        C139   1.265   1_655  A
O133        V136   1.896       .  S
O133        C138   1.264   1_655  A
O134        V136   1.898       .  S
O134        C137   1.265   1_655  A
V135        V136   2.085   1_455  T
C137        C408   1.475       .  S
C138        C384   1.480       .  S
C139        C483   1.480       .  S
C140        C435   1.474       .  S
O141        V149   1.901       .  S
O141        C151   1.264       .  A
O142        V149   1.903       .  S
O142        C152   1.266       .  A
O143        V149   1.896       .  S
O143        C153   1.265       .  A
O144        V149   1.900       .  S
O144        C154   1.265       .  A
O145        V150   1.899       .  S
O145        C154   1.265   1_655  A
O146        V150   1.906       .  S
O146        C153   1.266   1_655  A
O147        V150   1.896       .  S
O147        C152   1.264   1_655  A
O148        V150   1.898       .  S
O148        C151   1.263   1_655  A
V149        V150   2.084   1_455  T
C151        C363   1.469       .  S
C152        C456   1.480       .  S
C153        C315   1.482   1_455  S
C154        C336   1.479       .  S
O155        V163   1.899       .  S
O155        C165   1.264       .  A
O156        V163   1.901       .  S
O156        C166   1.265       .  A
O157        V163   1.897       .  S
O157        C167   1.263       .  A
O158        V163   1.903       .  S
O158        C168   1.266       .  A
O159        V164   1.896       .  S
O159        C168   1.264   1_455  A
O160        V164   1.899       .  S
O160        C167   1.263   1_455  A
O161        V164   1.899       .  S
O161        C166   1.265   1_455  A
O162        V164   1.900       .  S
O162        C165   1.264   1_455  A
V163        V164   2.088   1_655  T
C165        C264   1.470       .  S
C166        C312   1.480       .  S
C167        C291   1.462       .  S
C168        C387   1.481       .  S
O169        V177   1.899   1_556  S
O169        C179   1.264       .  A
O170        V177   1.900       .  S
O170        C180   1.265       .  A
O171        V177   1.903       .  S
O171        C181   1.264       .  A
O172        V177   1.905   1_455  S
O172        C182   1.265       .  A
O173        V178   1.896   1_455  S
O173        C182   1.263       .  A
O174        V178   1.902       .  S
O174        C181   1.264       .  A
O175        V178   1.899       .  S
O175        C180   1.266       .  A
O176        V178   1.901   1_556  S
O176        C179   1.264       .  A
V177        V178   2.082       .  T
C179        C411   1.470       .  S
C180        C288   1.479       .  S
C181       C1080   1.469       .  S
C182        C984   1.467       .  S
O183        V191   1.898   1_554  S
O183        C193   1.264       .  A
O184        V191   1.899       .  S
O184        C194   1.264       .  A
O185        V191   1.902       .  S
O185        C195   1.264       .  A
O186        V191   1.899   1_655  S
O186        C196   1.264       .  A
O187        V192   1.901   1_655  S
O187        C196   1.265       .  A
O188        V192   1.901       .  S
O188        C195   1.264       .  A
O189        V192   1.900       .  S
O189        C194   1.264       .  A
O190        V192   1.900   1_554  S
O190        C193   1.264       .  A
V191        V192   2.089       .  T
C193        C360   1.472       .  S
C194        C531   1.468       .  S
C195        C864   1.470       .  S
C196        C939   1.475       .  S
O197        V205   1.896   1_545  S
O197        C207   1.264       .  A
O198        V205   1.897       .  S
O198        C208   1.263       .  A
O199        V205   1.903       .  S
O199        C209   1.265       .  A
O200        V205   1.903   1_655  S
O200        C210   1.265       .  A
O201        V206   1.900   1_655  S
O201        C210   1.264       .  A
O202        V206   1.900   1_545  S
O202        C209   1.263   1_545  A
O203        V206   1.904       .  S
O203        C208   1.265       .  A
O204        V206   1.903   1_545  S
O204        C207   1.266       .  A
V205        V206   2.079       .  T
C207        C267   1.473       .  S
C208        C339   1.466       .  S
C209        C624   1.467       .  S
C210        C555   1.469       .  S
O211        V219   1.893   1_565  S
O211        C221   1.264       .  A
O212        V219   1.901   1_455  S
O212        C222   1.264   1_455  A
O213        V219   1.903       .  S
O213        C223   1.265       .  A
O214        V219   1.902   1_465  S
O214        C224   1.264   1_565  A
O215        V220   1.900   1_455  S
O215        C224   1.264       .  A
O216        V220   1.896       .  S
O216        C223   1.264       .  A
O217        V220   1.897       .  S
O217        C222   1.264       .  A
O218        V220   1.908   1_465  S
O218        C221   1.267   1_455  A
V219        V220   2.085       .  T
C221        C504   1.479       .  S
C222        C432   1.468       .  S
C223        C792   1.475       .  S
C224        C720   1.470       .  S
O225        V233   1.901   1_544  S
O225        C235   1.265   1_545  A
O226        V233   1.900       .  S
O226        C236   1.264   1_565  A
O227        V233   1.898       .  S
O227        C237   1.264       .  A
O228        V233   1.905   1_545  S
O228        C238   1.266       .  A
O229        V234   1.896       .  S
O229        C238   1.264       .  A
O230        V234   1.904   1_565  S
O230        C237   1.265       .  A
O231        V234   1.901       .  S
O231        C236   1.264       .  A
O232        V234   1.899   1_564  S
O232        C235   1.265       .  A
V233        V234   2.085   1_565  T
C235        C576   1.474       .  S
C236        C819   1.471       .  S
C237        C915   1.474       .  S
C238       C1104   1.475       .  S
O239        V247   1.903   1_565  S
O239        C249   1.264       .  A
O240        V247   1.893   1_554  S
O240        C250   1.263   1_554  A
O241        V247   1.898   1_564  S
O241        C251   1.264   1_565  A
O242        V247   1.899       .  S
O242        C252   1.263       .  A
O243        V248   1.902       .  S
O243        C252   1.264   1_565  A
O244        V248   1.903   1_544  S
O244        C251   1.265       .  A
O245        V248   1.906   1_545  S
O245        C250   1.265       .  A
O246        V248   1.899       .  S
O246        C249   1.264       .  A
V247        V248   2.086   1_545  T
C249        C843   1.469       .  S
C250       C1008   1.470   1_556  S
C251        C651   1.471       .  S
C252        C696   1.466       .  S
C253        C254   1.398       .  A
C253        C258   1.403       .  A
C253        H269   1.084       .  S
C254        C255   1.403       .  A
C254        H270   1.084       .  S
C255        C265   1.402       .  A
C255        C256   1.412   1_455  A
C256        C262   1.412       .  A
C256        C257   1.411   1_655  A
C257        C259   1.412   1_455  A
C257        C258   1.412       .  A
C258        C266   1.401       .  A
C259        C268   1.403       .  A
C259        C260   1.404       .  A
C260        C261   1.399       .  A
C260        H271   1.084       .  S
C261        C262   1.404       .  A
C261        H272   1.084       .  S
C262        C263   1.403       .  A
C263        C264   1.404       .  A
C263        H273   1.085       .  S
C264        C265   1.403   1_655  A
C265        H274   1.084       .  S
C266        C267   1.405       .  A
C266        H275   1.084       .  S
C267        C268   1.405   1_455  A
C268        H276   1.084       .  S
C277        C278   1.398       .  A
C277        C282   1.403       .  A
C277        H293   1.084       .  S
C278        C279   1.403   1_455  A
C278        H294   1.084       .  S
C279        C289   1.401       .  A
C279        C280   1.411       .  A
C280        C286   1.411       .  A
C280        C281   1.411       .  A
C281        C283   1.413       .  A
C281        C282   1.413   1_655  A
C282        C290   1.401       .  A
C283        C292   1.403       .  A
C283        C284   1.403       .  A
C284        C285   1.399       .  A
C284        H295   1.084       .  S
C285        C286   1.404       .  A
C285        H296   1.083       .  S
C286        C287   1.403       .  A
C287        C288   1.407       .  A
C287        H297   1.084       .  S
C288        C289   1.406       .  A
C289        H298   1.084       .  S
C290        C291   1.401   1_455  A
C290        H299   1.085       .  S
C291        C292   1.402       .  A
C292        H300   1.085       .  S
C301        C302   1.400       .  A
C301        C306   1.404       .  A
C301        H317   1.084       .  S
C302        C303   1.404       .  A
C302        H318   1.084       .  S
C303        C313   1.405       .  A
C303        C304   1.411       .  A
C304        C310   1.411   1_655  A
C304        C305   1.412       .  A
C305        C307   1.411   1_655  A
C305        C306   1.412       .  A
C306        C314   1.406       .  A
C307        C316   1.401       .  A
C307        C308   1.403       .  A
C308        C309   1.397       .  A
C308        H319   1.084       .  S
C309        C310   1.403       .  A
C309        H320   1.084       .  S
C310        C311   1.401       .  A
C311        C312   1.406   1_455  A
C311        H321   1.084       .  S
C312        C313   1.408       .  A
C313        H322   1.084       .  S
C314        C315   1.408       .  A
C314        H323   1.084       .  S
C315        C316   1.407   1_655  A
C316        H324   1.084       .  S
C325        C326   1.400       .  A
C325        C330   1.404       .  A
C325        H341   1.084       .  S
C326        C327   1.404       .  A
C326        H342   1.084       .  S
C327        C337   1.404       .  A
C327        C328   1.411       .  A
C328        C334   1.412   1_455  A
C328        C329   1.411       .  A
C329        C331   1.412   1_455  A
C329        C330   1.413       .  A
C330        C338   1.405       .  A
C331        C340   1.401       .  A
C331        C332   1.403       .  A
C332        C333   1.398       .  A
C332        H343   1.084       .  S
C333        C334   1.403       .  A
C333        H344   1.084       .  S
C334        C335   1.401       .  A
C335        C336   1.406   1_655  A
C335        H345   1.084       .  S
C336        C337   1.408       .  A
C337        H346   1.084       .  S
C338        C339   1.403       .  A
C338        H347   1.085       .  S
C339        C340   1.402   1_455  A
C340        H348   1.085       .  S
C349        C350   1.399       .  A
C349        C354   1.404       .  A
C349        H365   1.084       .  S
C350        C351   1.404       .  A
C350        H366   1.084       .  S
C351        C361   1.403       .  A
C351        C352   1.412   1_655  A
C352        C358   1.412       .  A
C352        C353   1.411       .  A
C353        C355   1.412       .  A
C353        C354   1.412   1_455  A
C354        C362   1.403       .  A
C355        C364   1.402       .  A
C355        C356   1.403       .  A
C356        C357   1.398       .  A
C356        H367   1.084       .  S
C357        C358   1.403       .  A
C357        H368   1.084       .  S
C358        C359   1.402       .  A
C359        C360   1.404       .  A
C359        H369   1.084       .  S
C360        C361   1.405   1_455  A
C361        H370   1.084       .  S
C362        C363   1.404   1_655  A
C362        H371   1.085       .  S
C363        C364   1.403       .  A
C364        H372   1.084       .  S
C373        C374   1.398       .  A
C373        C378   1.403       .  A
C373        H389   1.084       .  S
C374        C375   1.403       .  A
C374        H390   1.084       .  S
C375        C385   1.402       .  A
C375        C376   1.411   1_655  A
C376        C382   1.412       .  A
C376        C377   1.412   1_455  A
C377        C379   1.411   1_655  A
C377        C378   1.412       .  A
C378        C386   1.403       .  A
C379        C388   1.402       .  A
C379        C380   1.404       .  A
C380        C381   1.399       .  A
C380        H391   1.084       .  S
C381        C382   1.403       .  A
C381        H392   1.084       .  S
C382        C383   1.404       .  A
C383        C384   1.407       .  A
C383        H393   1.084       .  S
C384        C385   1.407   1_455  A
C385        H394   1.084       .  S
C386        C387   1.407       .  A
C386        H395   1.084       .  S
C387        C388   1.408   1_655  A
C388        H396   1.084       .  S
C397        C398   1.398       .  A
C397        C402   1.403       .  A
C397        H413   1.084       .  S
C398        C399   1.403       .  A
C398        H414   1.084       .  S
C399        C409   1.401       .  A
C399        C400   1.411       .  A
C400        C406   1.412   1_655  A
C400        C401   1.411       .  A
C401        C403   1.412   1_655  A
C401        C402   1.412       .  A
C402        C410   1.402       .  A
C403        C412   1.404       .  A
C403        C404   1.404       .  A
C404        C405   1.400       .  A
C404        H415   1.083       .  S
C405        C406   1.404       .  A
C405        H416   1.084       .  S
C406        C407   1.405       .  A
C407        C408   1.406       .  A
C407        H417   1.084       .  S
C408        C409   1.405   1_455  A
C409        H418   1.084       .  S
C410        C411   1.403       .  A
C410        H419   1.085       .  S
C411        C412   1.405   1_655  A
C412        H420   1.084       .  S
C421        C422   1.398       .  A
C421        C426   1.403       .  A
C421        H437   1.084       .  S
C422        C423   1.403       .  A
C422        H438   1.084       .  S
C423        C433   1.401       .  A
C423        C424   1.412       .  A
C424        C430   1.413   1_655  A
C424        C425   1.411       .  A
C425        C427   1.412   1_655  A
C425        C426   1.412       .  A
C426        C434   1.401       .  A
C427        C436   1.404       .  A
C427        C428   1.404       .  A
C428        C429   1.400       .  A
C428        H439   1.084       .  S
C429        C430   1.404       .  A
C429        H440   1.084       .  S
C430        C431   1.404       .  A
C431        C432   1.404   1_455  A
C431        H441   1.084       .  S
C432        C433   1.403       .  A
C433        H442   1.085       .  S
C434        C435   1.405   1_655  A
C434        H443   1.084       .  S
C435        C436   1.405       .  A
C436        H444   1.084       .  S
C445        C446   1.399       .  A
C445        C450   1.404       .  A
C445        H461   1.084       .  S
C446        C447   1.403       .  A
C446        H462   1.084       .  S
C447        C457   1.403       .  A
C447        C448   1.412       .  A
C448        C454   1.411   1_455  A
C448        C449   1.411   1_455  A
C449        C451   1.412       .  A
C449        C450   1.410   1_655  A
C450        C458   1.402       .  A
C451        C460   1.403       .  A
C451        C452   1.403       .  A
C452        C453   1.398       .  A
C452        H463   1.084       .  S
C453        C454   1.403       .  A
C453        H464   1.084       .  S
C454        C455   1.401       .  A
C455        C456   1.407   1_655  A
C455        H465   1.084       .  S
C456        C457   1.407       .  A
C457        H466   1.084       .  S
C458        C459   1.408   1_455  A
C458        H467   1.084       .  S
C459        C460   1.406       .  A
C460        H468   1.084       .  S
C469        C470   1.398       .  A
C469        C474   1.403       .  A
C469        H485   1.084       .  S
C470        C471   1.403       .  A
C470        H486   1.084       .  S
C471        C481   1.402       .  A
C471        C472   1.411       .  A
C472        C478   1.411   1_655  A
C472        C473   1.412       .  A
C473        C475   1.411   1_655  A
C473        C474   1.411       .  A
C474        C482   1.402       .  A
C475        C484   1.403       .  A
C475        C476   1.404       .  A
C476        C477   1.399       .  A
C476        H487   1.084       .  S
C477        C478   1.403       .  A
C477        H488   1.084       .  S
C478        C479   1.403       .  A
C479        C480   1.407   1_455  A
C479        H489   1.084       .  S
C480        C481   1.407       .  A
C481        H490   1.084       .  S
C482        C483   1.407   1_655  A
C482        H491   1.084       .  S
C483        C484   1.407       .  A
C484        H492   1.084       .  S
C493        C494   1.398       .  A
C493        C498   1.402       .  A
C493        H509   1.084       .  S
C494        C495   1.403       .  A
C494        H510   1.084       .  S
C495        C505   1.400       .  A
C495        C496   1.410       .  A
C496        C502   1.413   1_655  A
C496        C497   1.412       .  A
C497        C499   1.412   1_655  A
C497        C498   1.413       .  A
C498        C506   1.402       .  A
C499        C508   1.404       .  A
C499        C500   1.404       .  A
C500        C501   1.400       .  A
C500        H511   1.084       .  S
C501        C502   1.404       .  A
C501        H512   1.083       .  S
C502        C503   1.406       .  A
C503        C504   1.407   1_455  A
C503        H513   1.084       .  S
C504        C505   1.406       .  A
C505        H514   1.084       .  S
C506        C507   1.402       .  A
C506        H515   1.085       .  S
C507        C508   1.404   1_655  A
C508        H516   1.085       .  S
C517        C518   1.399       .  A
C517        C522   1.403       .  A
C517        H533   1.084       .  S
C518        C519   1.403       .  A
C518        H534   1.084       .  S
C519        C529   1.402       .  A
C519        C520   1.411   1_455  A
C520        C526   1.412       .  A
C520        C521   1.411   1_655  A
C521        C523   1.412   1_455  A
C521        C522   1.413       .  A
C522        C530   1.403       .  A
C523        C532   1.403       .  A
C523        C524   1.403       .  A
C524        C525   1.399       .  A
C524        H535   1.084       .  S
C525        C526   1.404       .  A
C525        H536   1.083       .  S
C526        C527   1.404       .  A
C527        C528   1.406       .  A
C527        H537   1.084       .  S
C528        C529   1.405   1_655  A
C529        H538   1.084       .  S
C530        C531   1.403       .  A
C530        H539   1.085       .  S
C531        C532   1.404   1_455  A
C532        H540   1.085       .  S
C541        C542   1.400       .  A
C541        C546   1.403       .  A
C541        H557   1.084       .  S
C542        C543   1.404       .  A
C542        H558   1.083       .  S
C543        C553   1.404       .  A
C543        C544   1.412       .  A
C544        C550   1.411   1_565  A
C544        C545   1.412       .  A
C545        C547   1.412   1_565  A
C545        C546   1.412       .  A
C546        C554   1.404       .  A
C547        C556   1.403       .  A
C547        C548   1.403       .  A
C548        C549   1.399       .  A
C548        H559   1.084       .  S
C549        C550   1.404       .  A
C549        H560   1.084       .  S
C550        C551   1.403       .  A
C551        C552   1.407   1_545  A
C551        H561   1.084       .  S
C552        C553   1.407       .  A
C553        H562   1.084       .  S
C554        C555   1.404       .  A
C554        H563   1.085       .  S
C555        C556   1.403   1_565  A
C556        H564   1.085       .  S
C565        C566   1.398       .  A
C565        C570   1.403       .  A
C565        H581   1.084       .  S
C566        C567   1.403       .  A
C566        H582   1.084       .  S
C567        C577   1.401       .  A
C567        C568   1.412   1_545  A
C568        C574   1.412       .  A
C568        C569   1.411       .  A
C569        C571   1.412       .  A
C569        C570   1.412   1_565  A
C570        C578   1.402       .  A
C571        C580   1.404       .  A
C571        C572   1.404       .  A
C572        C573   1.400       .  A
C572        H583   1.084       .  S
C573        C574   1.404       .  A
C573        H584   1.084       .  S
C574        C575   1.404       .  A
C575        C576   1.406       .  A
C575        H585   1.084       .  S
C576        C577   1.404   1_565  A
C577        H586   1.084       .  S
C578        C579   1.403   1_545  A
C578        H587   1.085       .  S
C579        C580   1.404       .  A
C580        H588   1.085       .  S
C589        C590   1.399       .  A
C589        C594   1.404       .  A
C589        H605   1.084       .  S
C590        C591   1.403       .  A
C590        H606   1.084       .  S
C591        C601   1.404       .  A
C591        C592   1.412       .  A
C592        C598   1.411   1_565  A
C592        C593   1.412       .  A
C593        C595   1.412   1_565  A
C593        C594   1.411       .  A
C594        C602   1.402       .  A
C595        C604   1.403       .  A
C595        C596   1.403       .  A
C596        C597   1.399       .  A
C596        H607   1.084       .  S
C597        C598   1.404       .  A
C597        H608   1.084       .  S
C598        C599   1.402       .  A
C599        C600   1.408   1_545  A
C599        H609   1.084       .  S
C600        C601   1.407       .  A
C601        H610   1.084       .  S
C602        C603   1.408       .  A
C602        H611   1.084       .  S
C603        C604   1.407   1_565  A
C604        H612   1.084       .  S
C613        C614   1.400       .  A
C613        C618   1.404       .  A
C613        H629   1.084       .  S
C614        C615   1.404       .  A
C614        H630   1.084       .  S
C615        C625   1.404       .  A
C615        C616   1.413   1_545  A
C616        C622   1.412       .  A
C616        C617   1.412       .  A
C617        C619   1.411       .  A
C617        C618   1.411   1_565  A
C618        C626   1.404       .  A
C619        C628   1.402       .  A
C619        C620   1.403       .  A
C620        C621   1.398       .  A
C620        H631   1.084       .  S
C621        C622   1.403       .  A
C621        H632   1.084       .  S
C622        C623   1.402       .  A
C623        C624   1.402       .  A
C623        H633   1.085       .  S
C624        C625   1.403   1_565  A
C625        H634   1.085       .  S
C626        C627   1.407   1_545  A
C626        H635   1.084       .  S
C627        C628   1.407       .  A
C628        H636   1.084       .  S
C637        C638   1.399       .  A
C637        C642   1.403       .  A
C637        H653   1.084       .  S
C638        C639   1.403       .  A
C638        H654   1.084       .  S
C639        C649   1.402       .  A
C639        C640   1.412   1_545  A
C640        C646   1.412       .  A
C640        C641   1.412       .  A
C641        C643   1.413       .  A
C641        C642   1.412   1_565  A
C642        C650   1.402       .  A
C643        C652   1.405       .  A
C643        C644   1.404       .  A
C644        C645   1.400       .  A
C644        H655   1.084       .  S
C645        C646   1.404       .  A
C645        H656   1.083       .  S
C646        C647   1.404       .  A
C647        C648   1.405       .  A
C647        H657   1.084       .  S
C648        C649   1.404   1_565  A
C649        H658   1.084       .  S
C650        C651   1.404       .  A
C650        H659   1.085       .  S
C651        C652   1.404   1_545  A
C652        H660   1.084       .  S
C661        C662   1.401       .  A
C661        C666   1.404       .  A
C661        H677   1.084       .  S
C662        C663   1.404       .  A
C662        H678   1.084       .  S
C663        C673   1.405       .  A
C663        C664   1.411       .  A
C664        C670   1.412   1_565  A
C664        C665   1.413       .  A
C665        C667   1.411   1_565  A
C665        C666   1.412       .  A
C666        C674   1.406       .  A
C667        C676   1.402       .  A
C667        C668   1.403       .  A
C668        C669   1.398       .  A
C668        H679   1.084       .  S
C669        C670   1.403       .  A
C669        H680   1.084       .  S
C670        C671   1.402       .  A
C671        C672   1.406   1_545  A
C671        H681   1.084       .  S
C672        C673   1.408       .  A
C673        H682   1.084       .  S
C674        C675   1.408       .  A
C674        H683   1.084       .  S
C675        C676   1.406   1_565  A
C676        H684   1.084       .  S
C685        C686   1.398       .  A
C685        C690   1.404       .  A
C685        H701   1.083       .  S
C686        C687   1.403       .  A
C686        H702   1.084       .  S
C687        C697   1.402       .  A
C687        C688   1.413   1_565  A
C688        C694   1.412       .  A
C688        C689   1.412       .  A
C689        C691   1.412       .  A
C689        C690   1.411   1_545  A
C690        C698   1.402       .  A
C691        C700   1.405       .  A
C691        C692   1.404       .  A
C692        C693   1.400       .  A
C692        H703   1.083       .  S
C693        C694   1.404       .  A
C693        H704   1.084       .  S
C694        C695   1.404       .  A
C695        C696   1.404       .  A
C695        H705   1.085       .  S
C696        C697   1.402   1_545  A
C697        H706   1.085       .  S
C698        C699   1.407   1_565  A
C698        H707   1.084       .  S
C699        C700   1.407       .  A
C700        H708   1.084       .  S
C709        C710   1.399       .  A
C709        C714   1.404       .  A
C709        H725   1.084       .  S
C710        C711   1.403       .  A
C710        H726   1.084       .  S
C711        C721   1.403       .  A
C711        C712   1.412       .  A
C712        C718   1.412   1_545  A
C712        C713   1.412       .  A
C713        C715   1.412   1_545  A
C713        C714   1.412       .  A
C714        C722   1.403       .  A
C715        C724   1.403       .  A
C715        C716   1.404       .  A
C716        C717   1.399       .  A
C716        H727   1.084       .  S
C717        C718   1.403       .  A
C717        H728   1.084       .  S
C718        C719   1.403       .  A
C719        C720   1.403   1_565  A
C719        H729   1.085       .  S
C720        C721   1.404       .  A
C721        H730   1.085       .  S
C722        C723   1.406       .  A
C722        H731   1.084       .  S
C723        C724   1.406   1_545  A
C724        H732   1.084       .  S
C733        C734   1.398       .  A
C733        C738   1.403       .  A
C733        H749   1.084       .  S
C734        C735   1.403       .  A
C734        H750   1.084       .  S
C735        C745   1.402       .  A
C735        C736   1.412   1_545  A
C736        C742   1.411       .  A
C736        C737   1.412       .  A
C737        C739   1.412       .  A
C737        C738   1.410   1_565  A
C738        C746   1.401       .  A
C739        C748   1.405       .  A
C739        C740   1.404       .  A
C740        C741   1.400       .  A
C740        H751   1.084       .  S
C741        C742   1.404       .  A
C741        H752   1.084       .  S
C742        C743   1.403       .  A
C743        C744   1.408   1_565  A
C743        H753   1.084       .  S
C744        C745   1.406       .  A
C745        H754   1.084       .  S
C746        C747   1.407   1_545  A
C746        H755   1.084       .  S
C747        C748   1.408       .  A
C748        H756   1.084       .  S
C757        C758   1.399       .  A
C757        C762   1.404       .  A
C757        H773   1.084       .  S
C758        C759   1.404       .  A
C758        H774   1.084       .  S
C759        C769   1.404       .  A
C759        C760   1.411   1_565  A
C760        C766   1.412       .  A
C760        C761   1.413       .  A
C761        C763   1.411       .  A
C761        C762   1.412   1_545  A
C762        C770   1.405       .  A
C763        C772   1.403       .  A
C763        C764   1.404       .  A
C764        C765   1.399       .  A
C764        H775   1.084       .  S
C765        C766   1.404       .  A
C765        H776   1.084       .  S
C766        C767   1.404       .  A
C767        C768   1.407       .  A
C767        H777   1.084       .  S
C768        C769   1.407   1_545  A
C769        H778   1.084       .  S
C770        C771   1.407   1_565  A
C770        H779   1.084       .  S
C771        C772   1.408       .  A
C772        H780   1.084       .  S
C781        C782   1.399       .  A
C781        C786   1.403       .  A
C781        H797   1.084       .  S
C782        C783   1.404       .  A
C782        H798   1.084       .  S
C783        C793   1.404       .  A
C783        C784   1.412   1_565  A
C784        C790   1.411       .  A
C784        C785   1.411       .  A
C785        C787   1.412       .  A
C785        C786   1.412   1_545  A
C786        C794   1.403       .  A
C787        C796   1.402       .  A
C787        C788   1.403       .  A
C788        C789   1.399       .  A
C788        H799   1.084       .  S
C789        C790   1.403       .  A
C789        H800   1.084       .  S
C790        C791   1.402       .  A
C791        C792   1.406       .  A
C791        H801   1.084       .  S
C792        C793   1.405   1_545  A
C793        H802   1.084       .  S
C794        C795   1.404   1_565  A
C794        H803   1.085       .  S
C795        C796   1.403       .  A
C796        H804   1.085       .  S
C805        C806   1.400       .  A
C805        C810   1.404       .  A
C805        H821   1.084       .  S
C806        C807   1.404       .  A
C806        H822   1.083       .  S
C807        C817   1.405       .  A
C807        C808   1.412       .  A
C808        C814   1.411   1_545  A
C808        C809   1.411       .  A
C809        C811   1.412   1_545  A
C809        C810   1.412       .  A
C810        C818   1.404       .  A
C811        C820   1.402       .  A
C811        C812   1.403       .  A
C812        C813   1.398       .  A
C812        H823   1.084       .  S
C813        C814   1.403       .  A
C813        H824   1.084       .  S
C814        C815   1.401       .  A
C815        C816   1.405   1_565  A
C815        H825   1.085       .  S
C816        C817   1.406       .  A
C817        H826   1.084       .  S
C818        C819   1.405       .  A
C818        H827   1.085       .  S
C819        C820   1.403   1_545  A
C820        H828   1.085       .  S
C829        C830   1.401       .  A
C829        C834   1.404       .  A
C829        H845   1.084       .  S
C830        C831   1.404       .  A
C830        H846   1.083       .  S
C831        C841   1.406       .  A
C831        C832   1.412       .  A
C832        C838   1.411   1_556  A
C832        C833   1.412       .  A
C833        C835   1.412   1_556  A
C833        C834   1.412       .  A
C834        C842   1.405       .  A
C835        C844   1.402       .  A
C835        C836   1.403       .  A
C836        C837   1.398       .  A
C836        H847   1.084       .  S
C837        C838   1.403       .  A
C837        H848   1.084       .  S
C838        C839   1.401       .  A
C839        C840   1.406   1_554  A
C839        H849   1.084       .  S
C840        C841   1.407       .  A
C841        H850   1.084       .  S
C842        C843   1.404       .  A
C842        H851   1.084       .  S
C843        C844   1.402   1_556  A
C844        H852   1.085       .  S
C853        C854   1.400       .  A
C853        C858   1.404       .  A
C853        H869   1.084       .  S
C854        C855   1.404       .  A
C854        H870   1.084       .  S
C855        C865   1.404       .  A
C855        C856   1.413   1_554  A
C856        C862   1.412       .  A
C856        C857   1.412       .  A
C857        C859   1.412       .  A
C857        C858   1.411   1_556  A
C858        C866   1.404       .  A
C859        C868   1.404       .  A
C859        C860   1.403       .  A
C860        C861   1.399       .  A
C860        H871   1.084       .  S
C861        C862   1.403       .  A
C861        H872   1.084       .  S
C862        C863   1.403       .  A
C863        C864   1.403       .  A
C863        H873   1.085       .  S
C864        C865   1.404   1_556  A
C865        H874   1.085       .  S
C866        C867   1.407   1_554  A
C866        H875   1.084       .  S
C867        C868   1.405       .  A
C868        H876   1.084       .  S
C877        C878   1.401       .  A
C877        C882   1.404       .  A
C877        H893   1.084       .  S
C878        C879   1.405       .  A
C878        H894   1.084       .  S
C879        C889   1.405       .  A
C879        C880   1.411       .  A
C880        C886   1.412   1_556  A
C880        C881   1.412       .  A
C881        C883   1.410   1_556  A
C881        C882   1.412       .  A
C882        C890   1.407       .  A
C883        C892   1.400       .  A
C883        C884   1.403       .  A
C884        C885   1.397       .  A
C884        H895   1.084       .  S
C885        C886   1.402       .  A
C885        H896   1.084       .  S
C886        C887   1.401       .  A
C887        C888   1.405       .  A
C887        H897   1.084       .  S
C888        C889   1.409   1_554  A
C889        H898   1.084       .  S
C890        C891   1.409       .  A
C890        H899   1.084       .  S
C891        C892   1.406   1_556  A
C892        H900   1.084       .  S
C901        C902   1.400       .  A
C901        C906   1.404       .  A
C901        H917   1.084       .  S
C902        C903   1.404       .  A
C902        H918   1.084       .  S
C903        C913   1.404       .  A
C903        C904   1.412   1_556  A
C904        C910   1.412       .  A
C904        C905   1.412   1_554  A
C905        C907   1.412   1_556  A
C905        C906   1.412       .  A
C906        C914   1.405       .  A
C907        C916   1.402       .  A
C907        C908   1.403       .  A
C908        C909   1.398       .  A
C908        H919   1.084       .  S
C909        C910   1.403       .  A
C909        H920   1.084       .  S
C910        C911   1.402       .  A
C911        C912   1.405       .  A
C911        H921   1.084       .  S
C912        C913   1.405   1_554  A
C913        H922   1.084       .  S
C914        C915   1.405       .  A
C914        H923   1.084       .  S
C915        C916   1.405   1_556  A
C916        H924   1.085       .  S
C925        C926   1.400       .  A
C925        C930   1.404       .  A
C925        H941   1.084       .  S
C926        C927   1.404       .  A
C926        H942   1.084       .  S
C927        C937   1.405       .  A
C927        C928   1.413       .  A
C928        C934   1.412   1_554  A
C928        C929   1.412       .  A
C929        C931   1.412   1_554  A
C929        C930   1.412       .  A
C930        C938   1.404       .  A
C931        C940   1.402       .  A
C931        C932   1.403       .  A
C932        C933   1.398       .  A
C932        H943   1.084       .  S
C933        C934   1.403       .  A
C933        H944   1.084       .  S
C934        C935   1.402       .  A
C935        C936   1.404   1_556  A
C935        H945   1.085       .  S
C936        C937   1.405       .  A
C937        H946   1.084       .  S
C938        C939   1.406   1_554  A
C938        H947   1.084       .  S
C939        C940   1.405       .  A
C940        H948   1.085       .  S
C949        C950   1.398       .  A
C949        C954   1.403       .  A
C949        H965   1.084       .  S
C950        C951   1.403       .  A
C950        H966   1.084       .  S
C951        C961   1.401       .  A
C951        C952   1.411   1_556  A
C952        C958   1.412       .  A
C952        C953   1.411   1_554  A
C953        C955   1.411   1_556  A
C953        C954   1.412       .  A
C954        C962   1.402       .  A
C955        C964   1.403       .  A
C955        C956   1.404       .  A
C956        C957   1.399       .  A
C956        H967   1.084       .  S
C957        C958   1.404       .  A
C957        H968   1.084       .  S
C958        C959   1.404       .  A
C959        C960   1.407       .  A
C959        H969   1.084       .  S
C960        C961   1.407   1_554  A
C961        H970   1.084       .  S
C962        C963   1.406       .  A
C962        H971   1.084       .  S
C963        C964   1.408   1_556  A
C964        H972   1.084       .  S
C973        C974   1.399       .  A
C973        C978   1.404       .  A
C973        H989   1.084       .  S
C974        C975   1.403       .  A
C974        H990   1.084       .  S
C975        C985   1.403       .  A
C975        C976   1.412       .  A
C976        C982   1.413   1_554  A
C976        C977   1.412       .  A
C977        C979   1.411   1_554  A
C977        C978   1.412       .  A
C978        C986   1.403       .  A
C979        C988   1.403       .  A
C979        C980   1.404       .  A
C980        C981   1.399       .  A
C980        H991   1.084       .  S
C981        C982   1.403       .  A
C981        H992   1.084       .  S
C982        C983   1.403       .  A
C983        C984   1.403   1_556  A
C983        H993   1.085       .  S
C984        C985   1.403       .  A
C985        H994   1.085       .  S
C986        C987   1.406       .  A
C986        H995   1.084       .  S
C987        C988   1.407   1_554  A
C988        H996   1.084       .  S
C997        C998   1.400       .  A
C997       C1002   1.404       .  A
C997       H1013   1.083       .  S
C998        C999   1.404       .  A
C998       H1014   1.084       .  S
C999       C1009   1.405       .  A
C999       C1000   1.413   1_556  A
C1000      C1006   1.411       .  A
C1000      C1001   1.411       .  A
C1001      C1003   1.412       .  A
C1001      C1002   1.412   1_554  A
C1002      C1010   1.403       .  A
C1003      C1012   1.401       .  A
C1003      C1004   1.403       .  A
C1004      C1005   1.397       .  A
C1004      H1015   1.084       .  S
C1005      C1006   1.403       .  A
C1005      H1016   1.084       .  S
C1006      C1007   1.400       .  A
C1007      C1008   1.404       .  A
C1007      H1017   1.085       .  S
C1008      C1009   1.404   1_554  A
C1009      H1018   1.084       .  S
C1010      C1011   1.405   1_556  A
C1010      H1019   1.084       .  S
C1011      C1012   1.403       .  A
C1012      H1020   1.085       .  S
C1021      C1022   1.397       .  A
C1021      C1026   1.403       .  A
C1021      H1037   1.084       .  S
C1022      C1023   1.402       .  A
C1022      H1038   1.084       .  S
C1023      C1033   1.400       .  A
C1023      C1024   1.411   1_556  A
C1024      C1030   1.412       .  A
C1024      C1025   1.412       .  A
C1025      C1027   1.412       .  A
C1025      C1026   1.411   1_554  A
C1026      C1034   1.400       .  A
C1027      C1036   1.406       .  A
C1027      C1028   1.404       .  A
C1028      C1029   1.401       .  A
C1028      H1039   1.084       .  S
C1029      C1030   1.404       .  A
C1029      H1040   1.084       .  S
C1030      C1031   1.406       .  A
C1031      C1032   1.409       .  A
C1031      H1041   1.084       .  S
C1032      C1033   1.406   1_554  A
C1033      H1042   1.084       .  S
C1034      C1035   1.406   1_556  A
C1034      H1043   1.084       .  S
C1035      C1036   1.408       .  A
C1036      H1044   1.084       .  S
C1045      C1046   1.400       .  A
C1045      C1050   1.404       .  A
C1045      H1061   1.084       .  S
C1046      C1047   1.404       .  A
C1046      H1062   1.084       .  S
C1047      C1057   1.404       .  A
C1047      C1048   1.411       .  A
C1048      C1054   1.411   1_554  A
C1048      C1049   1.412       .  A
C1049      C1051   1.412   1_554  A
C1049      C1050   1.411       .  A
C1050      C1058   1.404       .  A
C1051      C1060   1.403       .  A
C1051      C1052   1.403       .  A
C1052      C1053   1.399       .  A
C1052      H1063   1.084       .  S
C1053      C1054   1.403       .  A
C1053      H1064   1.084       .  S
C1054      C1055   1.403       .  A
C1055      C1056   1.407   1_556  A
C1055      H1065   1.084       .  S
C1056      C1057   1.407       .  A
C1057      H1066   1.084       .  S
C1058      C1059   1.408       .  A
C1058      H1067   1.084       .  S
C1059      C1060   1.406   1_554  A
C1060      H1068   1.084       .  S
C1069      C1070   1.400       .  A
C1069      C1074   1.404       .  A
C1069      H1085   1.083       .  S
C1070      C1071   1.404       .  A
C1070      H1086   1.084       .  S
C1071      C1081   1.404       .  A
C1071      C1072   1.412   1_556  A
C1072      C1078   1.413       .  A
C1072      C1073   1.413       .  A
C1073      C1075   1.411       .  A
C1073      C1074   1.412   1_554  A
C1074      C1082   1.405       .  A
C1075      C1084   1.403       .  A
C1075      C1076   1.404       .  A
C1076      C1077   1.399       .  A
C1076      H1087   1.084       .  S
C1077      C1078   1.403       .  A
C1077      H1088   1.084       .  S
C1078      C1079   1.404       .  A
C1079      C1080   1.403       .  A
C1079      H1089   1.085       .  S
C1080      C1081   1.403   1_554  A
C1081      H1090   1.085       .  S
C1082      C1083   1.407   1_556  A
C1082      H1091   1.084       .  S
C1083      C1084   1.407       .  A
C1084      H1092   1.084       .  S
C1093      C1094   1.400       .  A
C1093      C1098   1.404       .  A
C1093      H1109   1.084       .  S
C1094      C1095   1.404       .  A
C1094      H1110   1.084       .  S
C1095      C1105   1.405       .  A
C1095      C1096   1.412       .  A
C1096      C1102   1.411   1_556  A
C1096      C1097   1.412       .  A
C1097      C1099   1.412   1_556  A
C1097      C1098   1.412       .  A
C1098      C1106   1.404       .  A
C1099      C1108   1.402       .  A
C1099      C1100   1.403       .  A
C1100      C1101   1.398       .  A
C1100      H1111   1.084       .  S
C1101      C1102   1.403       .  A
C1101      H1112   1.084       .  S
C1102      C1103   1.402       .  A
C1103      C1104   1.405   1_554  A
C1103      H1113   1.084       .  S
C1104      C1105   1.406       .  A
C1105      H1114   1.084       .  S
C1106      C1107   1.405       .  A
C1106      H1115   1.085       .  S
C1107      C1108   1.403   1_556  A
C1108      H1116   1.085       .  S
