geometry optimzed in LAMMPS
_audit_creation_date              2020-12-01 
_audit_creation_method            'lammps2cif' 
_symmetry_space_group_name_H-M    'P1' 
_symmetry_Int_Tables_number       1 
_symmetry_cell_setting            triclinic 
loop_ 
_symmetry_equiv_pos_as_xyz 
  x,y,z 
_cell_length_a                    42.88267708 
_cell_length_b                    42.24661147450203 
_cell_length_c                    104.28184639658113 
_cell_angle_alpha                 90.10690401118433 
_cell_angle_beta                  89.65212842218533 
_cell_angle_gamma                 119.75036442838349 
loop_ 
_atom_site_label 
_atom_site_type_symbol 
_atom_site_fract_x 
_atom_site_fract_y 
_atom_site_fract_z 
_atom_site_charge 
Zn1        Zn  0.14343908  0.28486826  0.38456908     1.49700
Zn2        Zn  0.21952730  0.36008414  0.38379966     1.49400
Zn3        Zn  0.16900666  0.33518596  0.36054603     1.49100
Zn4        Zn  0.14519013  0.36265107  0.38390885     1.49500
O5          O  0.16919923  0.33564189  0.37872741    -1.84000
O6          O  0.17542197  0.27562602  0.39649318    -0.74600
O7          O  0.25377196  0.37702609  0.36834240    -0.74400
O8          O  0.15691886  0.28768077  0.35352113    -0.73900
O9          O  0.22844703  0.32631175  0.39473398    -0.74600
O10         O  0.12901743  0.24920782  0.36954058    -0.74200
O11         O  0.21524400  0.36923671  0.35295930    -0.74800
O12         O  0.12641438  0.37889057  0.36864906    -0.74200
O13         O  0.23009853  0.40368790  0.39473012    -0.75000
O14         O  0.13489216  0.34783374  0.35323396    -0.74300
O15         O  0.17963297  0.40663303  0.39412626    -0.74800
O16         O  0.10268368  0.33007606  0.39518576    -0.74700
O17         O  0.09886542  0.27552297  0.39440100    -0.74500
C18         C  0.20866134  0.29442719  0.39931697     0.77300
C19         C  0.24703582  0.38060853  0.35670464     0.77800
C20         C  0.13866957  0.25553545  0.35779916     0.76700
C21         C  0.12252562  0.36788701  0.35706399     0.77100
C22         C  0.21188336  0.41891268  0.39786357     0.78200
C23         C  0.08700631  0.29633906  0.39818800     0.77300
Zn24       Zn  0.49581643  0.49780875  0.28096038     1.49700
Zn25       Zn  0.02088372  0.47451150  0.25859690     1.49400
Zn26       Zn  0.44714140  0.47469994  0.25710969     1.49100
Zn27       Zn  0.02766949  0.05508090  0.25744578     1.49500
O28         O  0.49679985  0.49898326  0.26279518    -1.84000
O29         O  0.02433333  0.48191941  0.28967080    -0.74600
O30         O  0.48739327  0.42956679  0.24602530    -0.74400
O31         O  0.41102132  0.45317205  0.27165362    -0.73900
O32         O  0.03848789  0.45669381  0.27369231    -0.74600
O33         O  0.44839320  0.46339839  0.28772502    -0.74200
O34         O  0.43803818  0.43420615  0.24506614    -0.74800
O35         O  0.49000984  0.06498467  0.24691499    -0.74200
O36         O  0.06713130  0.00793492  0.24694398    -0.75000
O37         O  0.43729127  0.01391126  0.24871275    -0.74300
O38         O  0.06784566  0.06100025  0.24604168    -0.74800
O39         O  0.04857710  0.09387603  0.27156297    -0.74700
O40         O  0.02367473  0.05816482  0.28845875    -0.74500
C41         C  0.03900050  0.46422329  0.28556996     0.77300
C42         C  0.45586615  0.41876940  0.24176931     0.77800
C43         C  0.41684500  0.44947836  0.28335198     0.76700
C44         C  0.45649205  0.04637187  0.24455532     0.77100
C45         C  0.08042254  0.04046391  0.24273111     0.78200
C46         C  0.04184885  0.08954051  0.28354347     0.77300
C47         C  0.17264791  0.33771131  0.81319489     0.45600
H48         H  0.17366201  0.33876861  0.82383289    -0.03400
C49         C  0.17056863  0.33541227  0.78819207     0.45700
H50         H  0.16978622  0.33398619  0.77756018    -0.03400
C51         C  0.15366846  0.35731469  0.80712601    -0.17100
C52         C  0.21029539  0.35609905  0.80664354    -0.16900
C53         C  0.15268507  0.29847324  0.80759190    -0.17200
C54         C  0.15244923  0.35548585  0.79390676    -0.17200
C55         C  0.20846678  0.35439561  0.79352969    -0.16800
C56         C  0.15178565  0.29791191  0.79442930    -0.17100
C57         C  0.50272842  0.50176209  0.85669080     0.45600
H58         H  0.50369824  0.50265634  0.86731724    -0.03400
C59         C  0.50283974  0.50102547  0.83167638     0.45700
H60         H  0.50280168  0.50048319  0.82102911    -0.03400
C61         C  0.01707512  0.03999235  0.85109095    -0.17100
C62         C  0.02291941  0.48452905  0.85121598    -0.16900
C63         C  0.46490933  0.48235635  0.85103359    -0.17200
C64         C  0.01844574  0.04016967  0.83791619    -0.17200
C65         C  0.02218114  0.48316483  0.83809412    -0.16800
C66         C  0.46463162  0.48107382  0.83779179    -0.17100
C67         C  0.16354432  0.33188344  0.49848594     0.45600
H68         H  0.16378730  0.33175049  0.48783746    -0.03400
C69         C  0.16307737  0.33224339  0.52350531     0.45700
H70         H  0.16292049  0.33231309  0.53415311    -0.03400
C71         C  0.17999228  0.31005771  0.50462826    -0.17100
C72         C  0.18504526  0.37054560  0.50447171    -0.16900
C73         C  0.12536034  0.31514204  0.50452667    -0.17200
C74         C  0.17980722  0.31085609  0.51782532    -0.17200
C75         C  0.18415868  0.37026387  0.51767066    -0.16800
C76         C  0.12567238  0.31525258  0.51772705    -0.17100
C77         C  0.33335800  0.16893968  0.45347931     0.45600
H78         H  0.33292944  0.16903933  0.44281485    -0.03400
C79         C  0.33418099  0.16870009  0.47852824     0.45700
H80         H  0.33450746  0.16860377  0.48917319    -0.03400
C81         C  0.31645549  0.18964038  0.45951783    -0.17100
C82         C  0.31318002  0.13096340  0.45928586    -0.16900
C83         C  0.37101309  0.18611884  0.45900928    -0.17200
C84         C  0.31679489  0.19024522  0.47268601    -0.17200
C85         C  0.31285646  0.12996592  0.47243417    -0.16800
C86         C  0.37225143  0.18611912  0.47217767    -0.17100
Zn87       Zn  0.31018218  0.11715148  0.60313340     1.49700
Zn88       Zn  0.30669761  0.19116128  0.60264981     1.49400
Zn89       Zn  0.38298777  0.19487577  0.60271963     1.49100
Zn90       Zn  0.33257963  0.16589146  0.57814471     1.49500
O91         O  0.33324140  0.16728582  0.59672922    -1.84000
O92         O  0.26765893  0.10657781  0.61424876    -0.74600
O93         O  0.33786262  0.23603803  0.61302526    -0.74400
O94         O  0.39420352  0.16415802  0.61473000    -0.73900
O95         O  0.26712915  0.15881699  0.61453978    -0.74600
O96         O  0.34347443  0.11092962  0.61491361    -0.74200
O97         O  0.39056666  0.23808559  0.61322272    -0.74800
O98         O  0.38240498  0.18977493  0.57092828    -0.74200
O99         O  0.28508365  0.20433956  0.58803398    -0.75000
O100        O  0.41816202  0.21285321  0.58782730    -0.74300
O101        O  0.30744245  0.19092124  0.57093337    -0.74800
O102        O  0.30645771  0.11479085  0.57160078    -0.74700
O103        O  0.29393177  0.07964030  0.58883599    -0.74500
C104        C  0.25479389  0.12616993  0.61833916     0.77300
C105        C  0.37028896  0.25058104  0.61675276     0.77800
C106        C  0.37530853  0.13164103  0.61889389     0.76700
C107        C  0.41357699  0.20781032  0.57577178     0.77100
C108        C  0.28875287  0.20352679  0.57594308     0.78200
C109        C  0.29333445  0.08345850  0.57673441     0.77300
Zn110      Zn  0.02742637  0.47481499  0.70742861     1.49700
Zn111      Zn  0.45234151  0.47901360  0.70710037     1.49400
Zn112      Zn  0.00072902  0.00146739  0.73205604     1.49100
Zn113      Zn  0.03036290  0.05495537  0.70780616     1.49500
O114        O  0.00325643  0.00401190  0.71351484    -1.84000
O115        O  0.49203568  0.43413375  0.69538555    -0.74600
O116        O  0.41523768  0.46059508  0.72121825    -0.74400
O117        O  0.02582605  0.47292623  0.73893866    -0.73900
O118        O  0.44199605  0.43745268  0.69534195    -0.74600
O119        O  0.04427290  0.45514876  0.72186601    -0.74200
O120        O  0.44860493  0.47282152  0.73871992    -0.74800
O121        O  0.04745366  0.08885826  0.72313926    -0.74200
O122        O  0.44833331  0.01545082  0.69610534    -0.75000
O123        O  0.02231039  0.05107543  0.73966072    -0.74300
O124        O  0.50099032  0.06651655  0.69588428    -0.74800
O125        O  0.07292262  0.06351892  0.69705598    -0.74700
O126        O  0.06885162  0.00911903  0.69619882    -0.74500
C127        C  0.46047731  0.42350944  0.69123495     0.77300
C128        C  0.41819681  0.45920592  0.73330744     0.77800
C129        C  0.04140318  0.45697236  0.73397236     0.76700
C130        C  0.04117409  0.08305629  0.73513404     0.77100
C131        C  0.46876566  0.04763267  0.69197209     0.78200
C132        C  0.08386095  0.04240606  0.69283976     0.77300
C133        C  0.33041301  0.16414185  0.16367243     0.45600
H134        H  0.33156792  0.16319425  0.15304833    -0.03400
C135        C  0.32750490  0.16640782  0.18868483     0.45700
H136        H  0.32626962  0.16746054  0.19932710    -0.03400
C137        C  0.29164040  0.14585356  0.16927296    -0.17100
C138        C  0.34836478  0.14482013  0.17072144    -0.16900
C139        C  0.34899840  0.20337490  0.16929435    -0.17200
C140        C  0.29086855  0.14712674  0.18239439    -0.17200
C141        C  0.34647447  0.14646956  0.18383642    -0.16800
C142        C  0.34720686  0.20382442  0.18241050    -0.17100
C143        C  0.50452144  0.00356591  0.12016607     0.45600
H144        H  0.50576266  0.00456818  0.10950918    -0.03400
C145        C  0.99866104  0.99912178  0.14447528     0.45700
H146        H  0.99693160  0.99735700  0.15510092    -0.03400
C147        C  0.48802229  0.02499807  0.12593631    -0.17100
C148        C  0.48232466  0.46597285  0.12669621    -0.16900
C149        C  0.03911680  0.01934251  0.12595352    -0.17200
C150        C  0.48626411  0.02439975  0.13907756    -0.17200
C151        C  0.48077734  0.46424904  0.13980093    -0.16800
C152        C  0.03766805  0.01739612  0.13906093    -0.17100
Zn153      Zn  0.14416591  0.36058764  0.93741233     1.49700
Zn154      Zn  0.22006401  0.36285184  0.93710257     1.49400
Zn155      Zn  0.14658613  0.28635059  0.93764094     1.49100
Zn156      Zn  0.16978977  0.33614241  0.91264283     1.49500
O157        O  0.17017703  0.33647061  0.93122866    -1.84000
O158        O  0.17473136  0.39969602  0.94998942    -0.74600
O159        O  0.22970412  0.33197427  0.94931738    -0.74400
O160        O  0.10545995  0.27662744  0.94929577    -0.73900
O161        O  0.22902385  0.40560200  0.94805483    -0.74600
O162        O  0.10093831  0.32655826  0.94772899    -0.74200
O163        O  0.17968709  0.27814745  0.94895109    -0.74800
O164        O  0.14482313  0.28498861  0.90582273    -0.74200
O165        O  0.25544862  0.37956257  0.92229285    -0.75000
O166        O  0.12743665  0.24969954  0.92320602    -0.74300
O167        O  0.21926074  0.36148823  0.90543587    -0.74800
O168        O  0.14611656  0.36304629  0.90572844    -0.74700
O169        O  0.12831408  0.38119739  0.92293485    -0.74500
C170        C  0.20758575  0.41457372  0.95322868     0.77300
C171        C  0.21097355  0.29931904  0.95330600     0.77800
C172        C  0.09034949  0.29496535  0.95233889     0.76700
C173        C  0.12915387  0.25362745  0.91106470     0.77100
C174        C  0.25056745  0.37730523  0.91020248     0.78200
C175        C  0.13120713  0.37957278  0.91081674     0.77300
Zn176      Zn  0.33420836  0.17073775  0.02889846     1.49700
Zn177      Zn  0.38588861  0.19456108  0.05262838     1.49400
Zn178      Zn  0.31021002  0.19484969  0.05375094     1.49100
Zn179      Zn  0.31075943  0.11926637  0.05310571     1.49500
O180        O  0.33535151  0.16993515  0.04729927    -1.84000
O181        O  0.38258422  0.20089045  0.02135969    -0.74600
O182        O  0.39580278  0.23722445  0.06398097    -0.74400
O183        O  0.29072053  0.21306185  0.03948108    -0.73900
O184        O  0.42061033  0.21263928  0.03740065    -0.74600
O185        O  0.30372581  0.19022388  0.02240136    -0.74200
O186        O  0.34402156  0.23746778  0.06417660    -0.74800
O187        O  0.26947529  0.10944736  0.06464589    -0.74200
O188        O  0.39617410  0.16093063  0.06309064    -0.75000
O189        O  0.26945667  0.16196783  0.06561290    -0.74300
O190        O  0.34417422  0.10900582  0.06347916    -0.74800
O191        O  0.29213979  0.08372188  0.03829301    -0.74700
O192        O  0.31506318  0.12137720  0.02167684    -0.74500
C193        C  0.41434376  0.21417731  0.02555620     0.77300
C194        C  0.37653972  0.25082527  0.06765096     0.77800
C195        C  0.28950647  0.20739978  0.02744688     0.76700
C196        C  0.25658425  0.12878389  0.06896431     0.77100
C197        C  0.37700447  0.12795341  0.06671253     0.78200
C198        C  0.29787672  0.08942907  0.02630562     0.77300
C199        C  0.22445483  0.28653649  0.96398231    -0.01100
C200        C  0.25077437  0.31173306  0.97225115    -0.09200
C201        C  0.25986202  0.30016035  0.98345042    -0.18000
C202        C  0.24314127  0.26274211  0.98664904     0.04400
C203        C  0.21775179  0.23724328  0.97789404     0.18600
C204        C  0.20829923  0.24930544  0.96683431    -0.19400
C205        C  0.20200957  0.19978895  0.98018443    -0.20700
C206        C  0.21187852  0.18699112  0.99077732    -0.19200
C207        C  0.23664843  0.21135849  0.99959076     0.20000
C208        C  0.25149769  0.24957991  0.99798290     0.02100
C209        C  0.27434937  0.27279588  0.00772006    -0.14000
C210        C  0.28442808  0.25869173  0.01801602    -0.11700
C211        C  0.27222499  0.22132182  0.01879530     0.01600
C212        C  0.24758803  0.19772879  0.00979844    -0.23900
H213        H  0.26356742  0.34070441  0.97029971     0.09600
H214        H  0.28028320  0.32106164  0.98935025     0.13200
H215        H  0.18807807  0.22959228  0.96045554     0.11900
H216        H  0.18262442  0.18023374  0.97355480     0.13100
H217        H  0.20013597  0.15781113  0.99206500     0.12100
H218        H  0.28521140  0.30192129  0.00752679     0.09200
H219        H  0.30347605  0.27723130  0.02495076     0.12500
H220        H  0.23792831  0.16869151  0.01051141     0.14400
C221        C  0.22039564  0.44046435  0.96402088    -0.01100
C222        C  0.19626286  0.43751380  0.97368548    -0.09200
C223        C  0.20848842  0.45794844  0.98490180    -0.18000
C224        C  0.24542386  0.48257751  0.98670540     0.04400
C225        C  0.26956911  0.48689052  0.97655704     0.18600
C226        C  0.25702085  0.46535191  0.96548781    -0.19400
C227        C  0.30603213  0.51284161  0.97747779    -0.20700
C228        C  0.31395097  0.03620508  0.98708116    -0.19200
C229        C  0.29143306  0.03459127  0.99711467     0.20000
C230        C  0.25437823  0.00781721  0.99715320     0.02100
C231        C  0.23347633  0.00575286  0.00802026    -0.14000
C232        C  0.24830707  0.03095944  0.01798996    -0.11700
C233        C  0.28401510  0.05893752  0.01728510     0.01600
C234        C  0.30564941  0.06016306  0.00701052    -0.23900
H235        H  0.16782612  0.41827860  0.97278932     0.09600
H236        H  0.18836465  0.45422385  0.99191108     0.13200
H237        H  0.27579782  0.46792863  0.95799456     0.11900
H238        H  0.32455279  0.51634684  0.96976909     0.13100
H239        H  0.34230521  0.05631853  0.98710401     0.12100
H240        H  0.20564708  0.98513675  0.00904663     0.09200
H241        H  0.23136965  0.02967592  0.02595346     0.12500
H242        H  0.33353693  0.08164071  0.00661293     0.14400
C243        C  0.06166666  0.28060762  0.96214224    -0.01100
C244        C  0.03937045  0.29579610  0.96355368    -0.09200
C245        C  0.01593603  0.28649599  0.97396438    -0.18000
C246        C  0.01455053  0.26202658  0.98349917     0.04400
C247        C  0.03648962  0.24584089  0.98181585     0.18600
C248        C  0.05934585  0.25482200  0.97111118    -0.19400
C249        C  0.03629990  0.22164112  0.99101256    -0.20700
C250        C  0.51927238  0.21938801  0.00429691    -0.19200
C251        C  0.49401391  0.23116124  0.00501726     0.20000
C252        C  0.49141967  0.25227136  0.99488689     0.02100
C253        C  0.46536919  0.26334613  0.99601063    -0.14000
C254        C  0.44174316  0.25232968  0.00638308    -0.11700
C255        C  0.44373059  0.23076674  0.01612790     0.01600
C256        C  0.47052407  0.22104721  0.01562416    -0.23900
H257        H  0.04062893  0.31569242  0.95671922     0.09600
H258        H  0.00001412  0.29969773  0.97439349     0.13200
H259        H  0.07676353  0.24314440  0.97014154     0.11900
H260        H  0.05300931  0.20924740  0.98978241     0.13100
H261        H  0.52136873  0.20323299  0.01195057     0.12100
H262        H  0.46181850  0.27971075  0.98891220     0.09200
H263        H  0.42108321  0.25999645  0.00664271     0.12500
H264        H  0.47169583  0.20385015  0.02309461     0.14400
C265        C  0.46586026  0.43403900  0.11824292    -0.01100
C266        C  0.43494203  0.42628752  0.11150522    -0.09200
C267        C  0.41927501  0.39653982  0.10325908    -0.18000
C268        C  0.43458481  0.37388538  0.10143915     0.04400
C269        C  0.46650943  0.38249887  0.10823045     0.18600
C270        C  0.48174823  0.41237543  0.11658935    -0.19400
C271        C  0.48312160  0.36143062  0.10656711    -0.20700
C272        C  0.46880525  0.33195457  0.09821049    -0.19200
C273        C  0.43738122  0.32269950  0.09141678     0.20000
C274        C  0.41960113  0.34329936  0.09303596     0.02100
C275        C  0.38751779  0.33232834  0.08618879    -0.14000
C276        C  0.37393445  0.30250618  0.07798635    -0.11700
C277        C  0.39181290  0.28266374  0.07624984     0.01600
C278        C  0.42353353  0.29285757  0.08301256    -0.23900
H279        H  0.42281376  0.44332315  0.11267429     0.09600
H280        H  0.39546467  0.39234529  0.09838183     0.13200
H281        H  0.99788288  0.41065795  0.12450936     0.11900
H282        H  0.99485001  0.35545862  0.11628443     0.13100
H283        H  0.48238171  0.31625947  0.09706432     0.12100
H284        H  0.37204519  0.34598679  0.08698886     0.09200
H285        H  0.34925993  0.29507218  0.07292027     0.12500
H286        H  0.43725946  0.27729412  0.08185955     0.14400
C287        C  0.39296273  0.11152457  0.07506985    -0.01100
C288        C  0.37154561  0.07644067  0.08010220    -0.09200
C289        C  0.38587349  0.06132178  0.08845784    -0.18000
C290        C  0.42238467  0.08090258  0.09207847     0.04400
C291        C  0.44431034  0.11604616  0.08664310     0.18600
C292        C  0.42944803  0.13106581  0.07832760    -0.19400
C293        C  0.48094416  0.13600133  0.08953005    -0.20700
C294        C  0.49642056  0.12167364  0.09765292    -0.19200
C295        C  0.47545701  0.08742364  0.10331825     0.20000
C296        C  0.43796995  0.06678141  0.10080408     0.02100
C297        C  0.41767781  0.03305708  0.10723794    -0.14000
C298        C  0.43409571  0.02014402  0.11557688    -0.11700
C299        C  0.47101089  0.04015162  0.11765398     0.01600
C300        C  0.49170874  0.07363373  0.11152506    -0.23900
H301        H  0.34335539  0.06058996  0.07768168     0.09600
H302        H  0.36767365  0.03414672  0.09183242     0.13200
H303        H  0.44640773  0.15812385  0.07440643     0.11900
H304        H  0.49782261  0.16277064  0.08538846     0.13100
H305        H  0.52492792  0.13761971  0.09960104     0.12100
H306        H  0.38907325  0.01617769  0.10614734     0.09200
H307        H  0.41798424  0.99415260  0.12033913     0.12500
H308        H  0.52039254  0.08899290  0.11325455     0.14400
C309        C  0.07249976  0.03474857  0.11838465    -0.01100
C310        C  0.08067590  0.01144092  0.11153088    -0.09200
C311        C  0.11186059  0.02544248  0.10413104    -0.18000
C312        C  0.13542753  0.06352009  0.10319348     0.04400
C313        C  0.12680758  0.08698094  0.11029979     0.18600
C314        C  0.09566196  0.07237812  0.11791748    -0.19400
C315        C  0.14881901  0.12483398  0.10950218    -0.20700
C316        C  0.17860717  0.14005402  0.10140420    -0.19200
C317        C  0.18737562  0.11774926  0.09407052     0.20000
C318        C  0.16650260  0.07916012  0.09513232     0.02100
C319        C  0.17729556  0.05789646  0.08789217    -0.14000
C320        C  0.20658000  0.07419311  0.07955118    -0.11700
C321        C  0.22612363  0.11213032  0.07809984     0.01600
C322        C  0.21667634  0.13380750  0.08553809    -0.23900
H323        H  0.06278651  0.98220618  0.11193519     0.09600
H324        H  0.11623416  0.00576112  0.09905676     0.13200
H325        H  0.08890528  0.09022648  0.12326585     0.11900
H326        H  0.14247816  0.14280981  0.11495236     0.13100
H327        H  0.19467143  0.16948466  0.10076472     0.12100
H328        H  0.16368804  0.02859304  0.08840674     0.09200
H329        H  0.21361675  0.05682039  0.07406195     0.12500
H330        H  0.23212997  0.16324943  0.08468880     0.14400
C331        C  0.36515664  0.12513517  0.16446386    -0.01100
C332        C  0.35180236  0.08809958  0.16717409    -0.09200
C333        C  0.37116120  0.07065896  0.16378927    -0.18000
C334        C  0.40495383  0.08987528  0.15758540     0.04400
C335        C  0.41780155  0.12719906  0.15446493     0.18600
C336        C  0.39782793  0.14434211  0.15786251    -0.19400
C337        C  0.45093729  0.14744645  0.14823107    -0.20700
C338        C  0.47155436  0.13152695  0.14494758    -0.19200
C339        C  0.45976020  0.09495265  0.14788161     0.20000
C340        C  0.42645764  0.07355612  0.15434927     0.02100
C341        C  0.41618608  0.03677279  0.15716226    -0.14000
C342        C  0.43711217  0.02150362  0.15307035    -0.11700
C343        C  0.46893254  0.04235135  0.14616378     0.01600
C344        C  0.48065731  0.07937020  0.14400580    -0.23900
H345        H  0.32676120  0.07290583  0.17241737     0.09600
H346        H  0.35927996  0.04229235  0.16637096     0.13200
H347        H  0.40858191  0.17316042  0.15596597     0.11900
H348        H  0.46098367  0.17585748  0.14584290     0.13100
H349        H  0.99074811  0.14391116  0.13729663     0.12100
H350        H  0.39165066  0.01885241  0.16220949     0.09200
H351        H  0.42429143  0.49361481  0.15573907     0.12500
H352        H  0.00032552  0.09229123  0.13695279     0.14400
C353        C  0.46105030  0.42815164  0.14640844    -0.01100
C354        C  0.42340806  0.40947664  0.14660286    -0.09200
C355        C  0.40369683  0.37205525  0.14938504    -0.18000
C356        C  0.42109576  0.35169906  0.15194214     0.04400
C357        C  0.45934881  0.37093111  0.15192916     0.18600
C358        C  0.47880630  0.40867194  0.14919567    -0.19400
C359        C  0.47800773  0.35222050  0.15438085    -0.20700
C360        C  0.45965852  0.31508371  0.15719810    -0.19200
C361        C  0.42206539  0.29537395  0.15746566     0.20000
C362        C  0.40212462  0.31314528  0.15457031     0.02100
C363        C  0.36414521  0.29156071  0.15466766    -0.14000
C364        C  0.34690875  0.25467170  0.15825039    -0.11700
C365        C  0.36675801  0.23798567  0.16180326     0.01600
C366        C  0.40432972  0.25827760  0.16108918    -0.23900
H367        H  0.40914111  0.42364335  0.14396676     0.09600
H368        H  0.37485422  0.35965139  0.14920610     0.13200
H369        H  0.00791429  0.42806312  0.15282807     0.11900
H370        H  0.00778359  0.37523186  0.16202934     0.13100
H371        H  0.47505130  0.30171497  0.15929747     0.12100
H372        H  0.34703184  0.30270029  0.15239111     0.09200
H373        H  0.31787458  0.23965711  0.15902185     0.12500
H374        H  0.41980313  0.24565210  0.16408636     0.14400
C375        C  0.25777325  0.13101937  0.16182740    -0.01100
C376        C  0.23754562  0.14870453  0.16273914    -0.09200
C377        C  0.20119933  0.13084493  0.15946576    -0.18000
C378        C  0.18366465  0.09429400  0.15518025     0.04400
C379        C  0.20502223  0.07741816  0.15330339     0.18600
C380        C  0.24171613  0.09578061  0.15669092    -0.19400
C381        C  0.18927150  0.04183087  0.14850917    -0.20700
C382        C  0.15273089  0.02241561  0.14573664    -0.19200
C383        C  0.13073600  0.03771056  0.14796450     0.20000
C384        C  0.14576072  0.07379385  0.15280362     0.02100
C385        C  0.12207424  0.08757894  0.15511064    -0.14000
C386        C  0.08556293  0.06723978  0.15198281    -0.11700
C387        C  0.07141046  0.03253959  0.14658382     0.01600
C388        C  0.09393422  0.01749345  0.14499676    -0.23900
H389        H  0.24946432  0.17583809  0.16680933     0.09600
H390        H  0.18734216  0.14605278  0.16071242     0.13200
H391        H  0.25713453  0.08180713  0.15613815     0.11900
H392        H  0.20531484  0.02884348  0.14693309     0.13100
H393        H  0.14149996  0.99502880  0.14194249     0.12100
H394        H  0.13112625  0.11433999  0.15902626     0.09200
H395        H  0.06884187  0.07968602  0.15296327     0.12500
H396        H  0.08319938  0.99089656  0.14054936     0.14400
C397        C  0.45467358  0.06200298  0.68196681    -0.01100
C398        C  0.41796021  0.04290081  0.67911271    -0.09200
C399        C  0.40425695  0.05320218  0.66888923    -0.18000
C400        C  0.42692245  0.08316916  0.66101874     0.04400
C401        C  0.46400722  0.10340767  0.66416524     0.18600
C402        C  0.47756279  0.09263561  0.67453600    -0.19400
C403        C  0.48726435  0.13408418  0.65688666    -0.20700
C404        C  0.47439135  0.14531969  0.64664118    -0.19200
C405        C  0.43809995  0.12565940  0.64321728     0.20000
C406        C  0.41399806  0.09388313  0.65021857     0.02100
C407        C  0.37800432  0.07401531  0.64604675    -0.14000
C408        C  0.36616900  0.08587117  0.63568066    -0.11700
C409        C  0.38956938  0.11796664  0.62908356     0.01600
C410        C  0.42567211  0.13761461  0.63285399    -0.23900
H411        H  0.39955368  0.01934928  0.68473128     0.09600
H412        H  0.37569721  0.03708333  0.66745014     0.13200
H413        H  0.50605273  0.10761907  0.67662544     0.11900
H414        H  0.51556542  0.14970160  0.65920400     0.13100
H415        H  0.49300568  0.16943939  0.64130677     0.12100
H416        H  0.35822290  0.04905769  0.65054214     0.09200
H417        H  0.33816207  0.07006168  0.63300702     0.12500
H418        H  0.44410684  0.16236354  0.62777414     0.14400
C419        C  0.44572560  0.39618205  0.68081635    -0.01100
C420        C  0.40938660  0.38004138  0.67748990    -0.09200
C421        C  0.39616136  0.35759033  0.66673069    -0.18000
C422        C  0.41910143  0.35080497  0.65881304     0.04400
C423        C  0.45572009  0.36641909  0.66244502     0.18600
C424        C  0.46859197  0.38875076  0.67333420    -0.19400
C425        C  0.47943157  0.35991395  0.65513716    -0.20700
C426        C  0.46742711  0.33758973  0.64440444    -0.19200
C427        C  0.43155513  0.32169747  0.64059294     0.20000
C428        C  0.40701155  0.32872942  0.64754390     0.02100
C429        C  0.37145315  0.31314132  0.64293316    -0.14000
C430        C  0.36019345  0.28954555  0.63243297    -0.11700
C431        C  0.38391301  0.28075113  0.62616916     0.01600
C432        C  0.41987866  0.29796146  0.63005276    -0.23900
H433        H  0.39108553  0.38519672  0.68313621     0.09600
H434        H  0.36790040  0.34604794  0.66485944     0.13200
H435        H  0.49680213  0.40124562  0.67576019     0.11900
H436        H  0.50739114  0.37183638  0.65782929     0.13100
H437        H  0.48632364  0.33254124  0.63908542     0.12100
H438        H  0.35154188  0.31817217  0.64734738     0.09200
H439        H  0.33233262  0.27697250  0.62955947     0.12500
H440        H  0.43864433  0.29181686  0.62516687     0.14400
C441        C  0.22661476  0.11162567  0.62835438    -0.01100
C442        C  0.21344606  0.07622871  0.63307887    -0.09200
C443        C  0.19079455  0.06411293  0.64375806    -0.18000
C444        C  0.18071937  0.08727486  0.65012990     0.04400
C445        C  0.19253802  0.12245059  0.64486181     0.18600
C446        C  0.21526952  0.13426215  0.63410632    -0.19400
C447        C  0.18205225  0.14586367  0.65046462    -0.20700
C448        C  0.15986768  0.13500410  0.66121375    -0.19200
C449        C  0.14831766  0.10081281  0.66676678     0.20000
C450        C  0.15912627  0.07670990  0.66146088     0.02100
C451        C  0.14797790  0.04316676  0.66777286    -0.14000
C452        C  0.12510911  0.03300535  0.67838080    -0.11700
C453        C  0.11279566  0.05593952  0.68310381     0.01600
C454        C  0.12539971  0.09028615  0.67747234    -0.23900
H455        H  0.22141841  0.05801908  0.62871745     0.09600
H456        H  0.18179946  0.03655462  0.64680972     0.13200
H457        H  0.22501272  0.16163033  0.63046590     0.11900
H458        H  0.19089637  0.17267629  0.64646134     0.13100
H459        H  0.15179716  0.15353860  0.66524129     0.12100
H460        H  0.15619852  0.02403695  0.66470569     0.09200
H461        H  0.11620653  0.00651496  0.68266345     0.12500
H462        H  0.11629529  0.10840696  0.68110903     0.14400
C463        C  0.27702659  0.05121926  0.56830411    -0.01100
C464        C  0.27834605  0.01971146  0.57139297    -0.09200
C465        C  0.26464590  0.99012495  0.56296371    -0.18000
C466        C  0.25295234  0.49500466  0.55075488     0.04400
C467        C  0.24578863  0.02247214  0.54850389     0.18600
C468        C  0.26057606  0.05233317  0.55687545    -0.19400
C469        C  0.22809384  0.02387970  0.53746485    -0.20700
C470        C  0.21962909  0.49784695  0.52785753    -0.19200
C471        C  0.21920285  0.46560139  0.53124631     0.20000
C472        C  0.23715227  0.46418262  0.54245557     0.02100
C473        C  0.23830897  0.43188450  0.54489553    -0.14000
C474        C  0.22147441  0.40197296  0.53673346    -0.11700
C475        C  0.20245575  0.40293038  0.52603242     0.01600
C476        C  0.20087855  0.43466718  0.52348993    -0.23900
H477        H  0.29072385  0.01825164  0.58023087     0.09600
H478        H  0.26814776  0.47083954  0.56640929     0.13200
H479        H  0.25884981  0.07644291  0.55457016     0.11900
H480        H  0.22579063  0.04775003  0.53536265     0.13100
H481        H  0.20666635  0.49931886  0.51916257     0.12100
H482        H  0.25263594  0.42912164  0.55287492     0.09200
H483        H  0.22358511  0.37797095  0.53876921     0.12500
H484        H  0.18539107  0.43538381  0.51545058     0.14400
C485        C  0.09343828  0.29847468  0.52615309    -0.01100
C486        C  0.06514896  0.26331838  0.52371147    -0.09200
C487        C  0.03517001  0.24729811  0.53173840    -0.18000
C488        C  0.03313673  0.26557796  0.54280285     0.04400
C489        C  0.06304656  0.30020303  0.54572354     0.18600
C490        C  0.09244461  0.31657157  0.53727953    -0.19400
C491        C  0.06354951  0.31808262  0.55709925    -0.20700
C492        C  0.53425132  0.30558060  0.56345962    -0.19200
C493        C  0.50468733  0.27115666  0.56103263     0.20000
C494        C  0.00279395  0.25044721  0.55118234     0.02100
C495        C  0.97061910  0.21805860  0.54830925    -0.14000
C496        C  0.44391201  0.20362097  0.55602877    -0.11700
C497        C  0.44490608  0.22282741  0.56709847     0.01600
C498        C  0.47538892  0.25653594  0.56959374    -0.23900
H499        H  0.06642082  0.24776814  0.51567869     0.09600
H500        H  0.01458543  0.22010833  0.52924648     0.13200
H501        H  0.11473632  0.34344927  0.53940358     0.11900
H502        H  0.08649589  0.34428295  0.55946025     0.13100
H503        H  0.53470191  0.32095905  0.57185597     0.12100
H504        H  0.96679772  0.20316912  0.53951284     0.09200
H505        H  0.42047110  0.17756309  0.55391987     0.12500
H506        H  0.47593620  0.27176267  0.57805793     0.14400
C507        C  0.27116260  0.21767396  0.56750236    -0.01100
C508        C  0.23924647  0.21643109  0.57130970    -0.09200
C509        C  0.22263413  0.23001328  0.56332899    -0.18000
C510        C  0.23805733  0.24604595  0.55136566     0.04400
C511        C  0.27097318  0.24797656  0.54773447     0.18600
C512        C  0.28664888  0.23304385  0.55564509    -0.19400
C513        C  0.28851714  0.26555404  0.53638125    -0.20700
C514        C  0.27455908  0.28225911  0.52869422    -0.19200
C515        C  0.24199402  0.28040648  0.53191954     0.20000
C516        C  0.22258996  0.26114957  0.54304539     0.02100
C517        C  0.18853981  0.25779409  0.54531685    -0.14000
C518        C  0.17477765  0.27355289  0.53700118    -0.11700
C519        C  0.19463631  0.29356195  0.52633321     0.01600
C520        C  0.22859664  0.29759460  0.52402473    -0.23900
H521        H  0.22693367  0.20466153  0.58047118     0.09600
H522        H  0.19832971  0.22848404  0.56694912     0.13200
H523        H  0.31167891  0.23450403  0.55276165     0.11900
H524        H  0.31365103  0.26715728  0.53358927     0.13100
H525        H  0.28911442  0.29636695  0.52009208     0.12100
H526        H  0.17154992  0.24246636  0.55325271     0.09200
H527        H  0.14830055  0.26987641  0.53888117     0.12500
H528        H  0.24463679  0.31403367  0.51602615     0.14400
C529        C  0.20650863  0.40498602  0.49709420    -0.01100
C530        C  0.24315889  0.42707970  0.49978375    -0.09200
C531        C  0.26150189  0.46404077  0.49644110    -0.18000
C532        C  0.24374850  0.48013254  0.49011243     0.04400
C533        C  0.20741763  0.45676964  0.48638588     0.18600
C534        C  0.18922737  0.41955454  0.48985899    -0.19400
C535        C  0.18907013  0.47097978  0.47960025    -0.20700
C536        C  0.20336701  0.01056918  0.47724800    -0.19200
C537        C  0.23959629  0.03354545  0.48030094     0.20000
C538        C  0.25934166  0.01905351  0.48639768     0.02100
C539        C  0.29548068  0.04389421  0.48974066    -0.14000
C540        C  0.31199871  0.08090750  0.48628005    -0.11700
C541        C  0.29311271  0.09443316  0.47946470     0.01600
C542        C  0.25648803  0.07079066  0.47695375    -0.23900
H543        H  0.25699708  0.41623980  0.50535552     0.09600
H544        H  0.28931413  0.47949908  0.49918350     0.13200
H545        H  0.16086498  0.40262377  0.48779759     0.11900
H546        H  0.16146676  0.45344078  0.47669853     0.13100
H547        H  0.18813266  0.02141150  0.47258562     0.12100
H548        H  0.31186178  0.03533193  0.49480964     0.09200
H549        H  0.34027548  0.09853039  0.48825279     0.12500
H550        H  0.24165210  0.08109501  0.47168196     0.14400
C551        C  0.09115306  0.30065865  0.49720620    -0.01100
C552        C  0.06871349  0.31544101  0.49945448    -0.09200
C553        C  0.03274460  0.29705131  0.49564327    -0.18000
C554        C  0.01777350  0.26286092  0.48943056     0.04400
C555        C  0.04128992  0.24912608  0.48637340     0.18600
C556        C  0.07764062  0.26809216  0.49023907    -0.19400
C557        C  0.02808703  0.21606582  0.47977314    -0.20700
C558        C  0.99225772  0.19659277  0.47600599    -0.19200
C559        C  0.46832788  0.21027823  0.47939941     0.20000
C560        C  0.48131746  0.24351932  0.48625910     0.02100
C561        C  0.45583843  0.25395136  0.49005206    -0.14000
C562        C  0.41955774  0.23343349  0.48647553    -0.11700
C563        C  0.40742975  0.20190912  0.47904887     0.01600
C564        C  0.43184306  0.18993062  0.47592751    -0.23900
H565        H  0.07865898  0.34056071  0.50483267     0.09600
H566        H  0.01714895  0.30999163  0.49788465     0.13200
H567        H  0.09475728  0.25632217  0.48858194     0.11900
H568        H  0.04568987  0.20531171  0.47740765     0.13100
H569        H  0.98315088  0.17145180  0.47070700     0.12100
H570        H  0.46330319  0.27819674  0.49560457     0.09200
H571        H  0.40136512  0.24341749  0.48888471     0.12500
H572        H  0.42267486  0.16556532  0.47014509     0.14400
C573        C  0.30099497  0.20939698  0.48002138    -0.01100
C574        C  0.27126541  0.18984039  0.48806023    -0.09200
C575        C  0.25010708  0.20497867  0.49203080    -0.18000
C576        C  0.25792339  0.24017014  0.48789457     0.04400
C577        C  0.28989173  0.26094721  0.48064216     0.18600
C578        C  0.31117677  0.24564521  0.47694637    -0.19400
C579        C  0.29979250  0.29642979  0.47672106    -0.20700
C580        C  0.27865429  0.31188546  0.47986848    -0.19200
C581        C  0.24655444  0.29197774  0.48674948     0.20000
C582        C  0.23531444  0.25552016  0.49063300     0.02100
C583        C  0.20176207  0.23598674  0.49695791    -0.14000
C584        C  0.18178211  0.25285500  0.50019508    -0.11700
C585        C  0.19462527  0.28976535  0.49739370     0.01600
C586        C  0.22619503  0.30870718  0.49013678    -0.23900
H587        H  0.26306395  0.16193749  0.49062699     0.09600
H588        H  0.22727900  0.18817217  0.49805895     0.13200
H589        H  0.33464249  0.26122087  0.47092767     0.11900
H590        H  0.32414176  0.31240199  0.47117585     0.13100
H591        H  0.28739553  0.33958347  0.47682904     0.12100
H592        H  0.19062399  0.20785483  0.49975369     0.09200
H593        H  0.15731481  0.23771322  0.50575534     0.12500
H594        H  0.23628839  0.33727576  0.48796827     0.14400
C595        C  0.43250281  0.46785402  0.85953348    -0.01100
C596        C  0.40217607  0.47027560  0.85609966    -0.09200
C597        C  0.37161493  0.45540693  0.86389821    -0.18000
C598        C  0.37116540  0.43942349  0.87583772     0.04400
C599        C  0.40307164  0.44014902  0.87982391     0.18600
C600        C  0.43282027  0.45350153  0.87160414    -0.19400
C601        C  0.40532426  0.42792261  0.89206110    -0.20700
C602        C  0.37638572  0.41499208  0.90048555    -0.19200
C603        C  0.34405904  0.41251635  0.89665728     0.20000
C604        C  0.34067031  0.42381546  0.88414735     0.02100
C605        C  0.30674581  0.41834555  0.88042014    -0.14000
C606        C  0.27769460  0.40314622  0.88890112    -0.11700
C607        C  0.28160276  0.39340887  0.90138329     0.01600
C608        C  0.31488684  0.39827764  0.90521634    -0.23900
H609        H  0.40204187  0.48417888  0.84744138     0.09600
H610        H  0.34928957  0.45808933  0.86056448     0.13200
H611        H  0.45633687  0.45286493  0.87480687     0.11900
H612        H  0.42981773  0.42885596  0.89520407     0.13100
H613        H  0.37908694  0.40622297  0.90997453     0.12100
H614        H  0.30163432  0.42470844  0.87092677     0.09200
H615        H  0.25204304  0.39924791  0.88568677     0.12500
H616        H  0.31783559  0.39006304  0.91477602     0.14400
C617        C  0.04007277  0.46888788  0.85937550    -0.01100
C618        C  0.07693636  0.48154806  0.85846757    -0.09200
C619        C  0.09318004  0.46756045  0.86649438    -0.18000
C620        C  0.07288443  0.44081439  0.87586822     0.04400
C621        C  0.03540260  0.42816388  0.87665580     0.18600
C622        C  0.01939912  0.44166566  0.86825064    -0.19400
C623        C  0.01414695  0.40251772  0.88594889    -0.20700
C624        C  0.02945302  0.38968745  0.89474434    -0.19200
C625        C  0.06619587  0.40139014  0.89422013     0.20000
C626        C  0.08835518  0.42648376  0.88458702     0.02100
C627        C  0.12489873  0.43577864  0.88404792    -0.14000
C628        C  0.13869183  0.42073749  0.89269366    -0.11700
C629        C  0.11689557  0.39691001  0.90232221     0.01600
C630        C  0.08081420  0.38759170  0.90315035    -0.19700
H631        H  0.08906516  0.99183048  0.84889565     0.09600
H632        H  0.12174302  0.47888000  0.86534248     0.13200
H633        H  0.48992585  0.42995974  0.86875493     0.11900
H634        H  0.48518690  0.39377361  0.88731569     0.13100
H635        H  0.01236686  0.37024937  0.90195488     0.12100
H636        H  0.14328822  0.45389465  0.87689117     0.09200
H637        H  0.16660610  0.42777381  0.89187254     0.12500
H638        H  0.06380386  0.36843644  0.91045596     0.14400
C639        C  0.03200334  0.07269870  0.85943254    -0.01100
C640        C  0.01129443  0.07419085  0.86957581    -0.09200
C641        C  0.02585021  0.10304063  0.87827613    -0.18000
C642        C  0.06182156  0.13151046  0.87703558     0.04400
C643        C  0.08218063  0.13056628  0.86637057     0.18600
C644        C  0.06745634  0.10092986  0.85789518    -0.19400
C645        C  0.11720388  0.15907447  0.86427199    -0.20700
C646        C  0.13248811  0.18875009  0.87252400    -0.19200
C647        C  0.11357040  0.18998255  0.88331564     0.20000
C648        C  0.07828957  0.16094870  0.88592838     0.02100
C649        C  0.06138486  0.16238066  0.89744639    -0.14000
C650        C  0.07845903  0.19196952  0.90579078    -0.11700
C651        C  0.11236914  0.22125343  0.90277575     0.01600
C652        C  0.12984261  0.22008292  0.89156498    -0.23900
H653        H  0.48672900  0.04905849  0.87232772     0.09600
H654        H  0.00820501  0.10247527  0.88578855     0.13200
H655        H  0.08387066  0.09951307  0.85022466     0.11900
H656        H  0.13273099  0.15862059  0.85610267     0.13100
H657        H  0.15949755  0.21066646  0.87054908     0.12100
H658        H  0.03523541  0.14084542  0.90035740     0.09200
H659        H  0.06470066  0.19242555  0.91447853     0.12500
H660        H  0.15643019  0.24252925  0.88935526     0.14400
C661        C  0.38578669  0.44181245  0.74131629    -0.01100
C662        C  0.35965337  0.45207703  0.74005465    -0.09200
C663        C  0.33026180  0.43813409  0.74836814    -0.18000
C664        C  0.32593923  0.41285271  0.75805407     0.04400
C665        C  0.35108670  0.40028082  0.75857691     0.18600
C666        C  0.38130332  0.41561868  0.75046436    -0.19400
C667        C  0.34584842  0.37261347  0.76718363    -0.20700
C668        C  0.31608413  0.35724359  0.77533153    -0.19200
C669        C  0.29196730  0.37051416  0.77550097     0.20000
C670        C  0.29727998  0.39932183  0.76711850     0.02100
C671        C  0.27448924  0.41435604  0.76846663    -0.14000
C672        C  0.24645913  0.40011338  0.77731573    -0.11700
C673        C  0.23977718  0.37014308  0.78484075     0.01600
C674        C  0.26278445  0.35562615  0.78409753    -0.23900
H675        H  0.36256234  0.47182180  0.73284759     0.09600
H676        H  0.31105431  0.44716264  0.74685098     0.13200
H677        H  0.40122181  0.40700096  0.75116694     0.11900
H678        H  0.36464645  0.36251218  0.76750474     0.13100
H679        H  0.31239477  0.33549666  0.78175516     0.12100
H680        H  0.27843525  0.43792474  0.76313996     0.09200
H681        H  0.23044118  0.41316918  0.77851796     0.12500
H682        H  0.25800839  0.33296895  0.79025208     0.14400
C683        C  0.13477401  0.37012098  0.78538815    -0.01100
C684        C  0.10124751  0.36626285  0.78849447    -0.09200
C685        C  0.08505085  0.38012698  0.78044697    -0.18000
C686        C  0.10127714  0.39698847  0.76867506     0.04400
C687        C  0.13389294  0.39837361  0.76511929     0.18600
C688        C  0.15047207  0.38561947  0.77353388    -0.19400
C689        C  0.14955054  0.41196106  0.75310320    -0.20700
C690        C  0.13322267  0.42406254  0.74445757    -0.19200
C691        C  0.10170108  0.42423007  0.74784749     0.20000
C692        C  0.08580699  0.41156583  0.76014745     0.02100
C693        C  0.05554262  0.41473244  0.76349516    -0.14000
C694        C  0.04125054  0.42917478  0.75489087    -0.11700
C695        C  0.05624588  0.44045756  0.74264332     0.01600
C696        C  0.08631914  0.43768828  0.73911612    -0.23900
H697        H  0.08701965  0.35188700  0.79706404     0.09600
H698        H  0.05923163  0.37600927  0.78348095     0.13200
H699        H  0.17544515  0.38735253  0.77065322     0.11900
H700        H  0.17429802  0.41272893  0.75030285     0.13100
H701        H  0.14567150  0.43395456  0.73515175     0.12100
H702        H  0.04292686  0.40726253  0.77281120     0.09200
H703        H  0.01821132  0.43150815  0.75785598     0.12500
H704        H  0.09849261  0.44721145  0.72974280     0.14400
C705        C  0.13483783  0.26462459  0.78642004    -0.01100
C706        C  0.09941648  0.23713465  0.78865762    -0.09200
C707        C  0.08347312  0.20626804  0.78088745    -0.18000
C708        C  0.10222146  0.20273517  0.77028055     0.04400
C709        C  0.13752094  0.23170405  0.76769441     0.18600
C710        C  0.15370480  0.26177411  0.77591790    -0.19400
C711        C  0.15615720  0.23092976  0.75675287    -0.20700
C712        C  0.14007055  0.20229303  0.74810508    -0.19200
C713        C  0.10562760  0.17304392  0.75049969     0.20000
C714        C  0.08674297  0.17217689  0.76187186     0.02100
C715        C  0.05337411  0.14062034  0.76438205    -0.14000
C716        C  0.03876655  0.11182269  0.75567875    -0.11700
C717        C  0.05656762  0.11384238  0.74414810     0.01600
C718        C  0.09004645  0.14442354  0.74163331    -0.23900
H719        H  0.08366060  0.23983935  0.79626876     0.09600
H720        H  0.05599993  0.18639729  0.78309581     0.13200
H721        H  0.18095165  0.28338413  0.77403049     0.11900
H722        H  0.18299739  0.25307033  0.75470390     0.13100
H723        H  0.15480638  0.20285973  0.73954365     0.12100
H724        H  0.03834445  0.13707945  0.77310191     0.09200
H725        H  0.01320563  0.08795331  0.75792617     0.12500
H726        H  0.10444336  0.14547694  0.73290890     0.14400
C727        C  0.03683040  0.46272108  0.83102940    -0.01100
C728        C  0.02261533  0.42551074  0.83364400    -0.09200
C729        C  0.04178982  0.40769806  0.83058401    -0.18000
C730        C  0.07602269  0.42663661  0.82469192     0.04400
C731        C  0.08899997  0.46366971  0.82112981     0.18600
C732        C  0.06945218  0.48135934  0.82436446    -0.19400
C733        C  0.12192779  0.48310775  0.81469628    -0.20700
C734        C  0.14213008  0.46656544  0.81162027    -0.19200
C735        C  0.13047699  0.43044775  0.81521937     0.20000
C736        C  0.09769738  0.41017120  0.82209847     0.02100
C737        C  0.08817031  0.37434777  0.82603983    -0.14000
C738        C  0.10866181  0.35832064  0.82228724    -0.11700
C739        C  0.13906311  0.37738459  0.81449929     0.01600
C740        C  0.15078135  0.41402360  0.81154645    -0.23900
H741        H  0.99746859  0.41071509  0.83886025     0.09600
H742        H  0.02942269  0.37927437  0.83314338     0.13200
H743        H  0.07209835  0.00558884  0.81925470     0.11900
H744        H  0.13200866  0.51126083  0.81192010     0.13100
H745        H  0.16714494  0.48219821  0.80639855     0.12100
H746        H  0.06457321  0.35777143  0.83176485     0.09200
H747        H  0.09923788  0.33005713  0.82468706     0.12500
H748        H  0.17449871  0.42894524  0.80557716     0.14400
C749        C  0.24564594  0.37507861  0.81330472    -0.01100
C750        C  0.25719017  0.35540859  0.82074811    -0.09200
C751        C  0.29339156  0.37089142  0.82430526    -0.18000
C752        C  0.31934504  0.40662371  0.82035123     0.04400
C753        C  0.30696279  0.42697022  0.81331864     0.18600
C754        C  0.27048505  0.41131431  0.81005249    -0.19400
C755        C  0.33118927  0.46254150  0.80928502    -0.20700
C756        C  0.36751767  0.47873527  0.81225721    -0.19200
C757        C  0.38075708  0.45967372  0.81921928     0.20000
C758        C  0.35697882  0.42305192  0.82315566     0.02100
C759        C  0.37195555  0.40470323  0.82982735    -0.14000
C760        C  0.40813232  0.42286253  0.83338209    -0.11700
C761        C  0.43067714  0.45981195  0.83043851     0.01600
C762        C  0.41734106  0.47755514  0.82276161    -0.23900
H763        H  0.23853877  0.32729906  0.82324756     0.09600
H764        H  0.30040169  0.35395004  0.82990314     0.13200
H765        H  0.26161822  0.42671303  0.80430646     0.11900
H766        H  0.32191723  0.47808218  0.80383794     0.13100
H767        H  0.38485083  0.00416716  0.80920576     0.12100
H768        H  0.35614227  0.37665788  0.83279093     0.09200
H769        H  0.41804229  0.40864190  0.83925326     0.12500
H770        H  0.43271942  0.00418787  0.82151436     0.14400
C771        C  0.13798325  0.26397038  0.81508642    -0.01100
C772        C  0.15299019  0.24145667  0.81317996    -0.09200
C773        C  0.13372002  0.20431499  0.81620803    -0.18000
C774        C  0.09843218  0.18828119  0.82124285     0.04400
C775        C  0.08447398  0.21186053  0.82414935     0.18600
C776        C  0.10434966  0.24937446  0.82111608    -0.19400
C777        C  0.05020544  0.19756948  0.82961727    -0.20700
C778        C  0.02960489  0.16050272  0.83235725    -0.19200
C779        C  0.04230252  0.13651492  0.82940872     0.20000
C780        C  0.07655585  0.14983734  0.82353946     0.02100
C781        C  0.08727553  0.12400807  0.82025832    -0.14000
C782        C  0.06632483  0.08717304  0.82373210    -0.11700
C783        C  0.03413037  0.07496174  0.83051459     0.01600
C784        C  0.02147364  0.09944209  0.83274791    -0.23900
H785        H  0.17886922  0.25222426  0.80845652     0.09600
H786        H  0.14678721  0.18865687  0.81419310     0.13200
H787        H  0.09238395  0.26652659  0.82244927     0.11900
H788        H  0.03930495  0.21524033  0.83185965     0.13100
H789        H  0.00346909  0.15049699  0.83680984     0.12100
H790        H  0.11217091  0.13165369  0.81531474     0.09200
H791        H  0.07661218  0.06876856  0.82194212     0.12500
H792        H  0.99643379  0.09002811  0.83796255     0.14400
C793        C  0.43948828  0.38779739  0.23273773    -0.01100
C794        C  0.40887730  0.38082812  0.22577254    -0.09200
C795        C  0.39323889  0.35176461  0.21718785    -0.18000
C796        C  0.40763488  0.32836187  0.21536056     0.04400
C797        C  0.43850283  0.33537990  0.22255401     0.18600
C798        C  0.45422811  0.36501669  0.23102330    -0.19400
C799        C  0.45341200  0.31263872  0.22134157    -0.20700
C800        C  0.43822823  0.28282234  0.21316775    -0.19200
C801        C  0.40804856  0.27531390  0.20589350     0.20000
C802        C  0.39240735  0.29810509  0.20676686     0.02100
C803        C  0.36216540  0.28945132  0.19902906    -0.14000
C804        C  0.34793802  0.25921456  0.19092856    -0.11700
C805        C  0.36343461  0.23700161  0.19028929     0.01600
C806        C  0.39327012  0.24493353  0.19777389    -0.23900
H807        H  0.39699090  0.39809751  0.22688643     0.09600
H808        H  0.36979023  0.34824497  0.21221697     0.13200
H809        H  0.47777618  0.37004512  0.23642745     0.11900
H810        H  0.97646372  0.31897579  0.22955467     0.13100
H811        H  0.45022945  0.26553837  0.21251058     0.12100
H812        H  0.34883984  0.30535805  0.19903076     0.09200
H813        H  0.32438754  0.25277213  0.18528918     0.12500
H814        H  0.40490537  0.22726989  0.19726334     0.14400
C815        C  0.36163761  0.13132687  0.19299297    -0.01100
C816        C  0.33905137  0.10463912  0.20172917    -0.09200
C817        C  0.35315661  0.09101420  0.21078571    -0.18000
C818        C  0.39059236  0.10432465  0.21144679     0.04400
C819        C  0.41338833  0.13272990  0.20286533     0.18600
C820        C  0.39871315  0.14556483  0.19363854    -0.19400
C821        C  0.45069065  0.14827207  0.20357346    -0.20700
C822        C  0.46597799  0.13571051  0.21247478    -0.19200
C823        C  0.44428485  0.10667818  0.22064348     0.20000
C824        C  0.40625045  0.09046907  0.22024884     0.02100
C825        C  0.38558436  0.06040181  0.22840094    -0.14000
C826        C  0.40199940  0.04656637  0.23636541    -0.11700
C827        C  0.43946265  0.06250489  0.23664487     0.01600
C828        C  0.46044774  0.09304479  0.22894597    -0.23900
H829        H  0.31031459  0.09418670  0.20148438     0.09600
H830        H  0.33413994  0.07047872  0.21721911     0.13200
H831        H  0.41612295  0.16714909  0.18708220     0.11900
H832        H  0.46816751  0.17025009  0.19717461     0.13100
H833        H  0.49498203  0.14821611  0.21275478     0.12100
H834        H  0.35664509  0.04628147  0.22859139     0.09200
H835        H  0.38518487  0.02303437  0.24227460     0.12500
H836        H  0.48947065  0.10545164  0.22904445     0.14400
C837        C  0.25796721  0.13029667  0.19024164    -0.01100
C838        C  0.23748941  0.09242120  0.19117881    -0.09200
C839        C  0.20798978  0.07627548  0.19945381    -0.18000
C840        C  0.19816088  0.09787909  0.20699213     0.04400
C841        C  0.21862134  0.13645003  0.20558054     0.18600
C842        C  0.24854944  0.15223825  0.19738544    -0.19400
C843        C  0.20927352  0.15904439  0.21241624    -0.20700
C844        C  0.18003367  0.14419915  0.22072873    -0.19200
C845        C  0.15996314  0.10646914  0.22260132     0.20000
C846        C  0.16888648  0.08271568  0.21587481     0.02100
C847        C  0.14844432  0.04492178  0.21849605    -0.14000
C848        C  0.12011630  0.03136022  0.22730961    -0.11700
C849        C  0.11103175  0.05487141  0.23368864     0.01600
C850        C  0.13110596  0.09240058  0.23127314    -0.23900
H851        H  0.24487533  0.07532400  0.18567977     0.09600
H852        H  0.19347206  0.04691456  0.19971319     0.13200
H853        H  0.26468164  0.18166382  0.19655116     0.11900
H854        H  0.22464064  0.18841298  0.21130224     0.13100
H855        H  0.17334389  0.16239802  0.22585494     0.12100
H856        H  0.15386934  0.02515447  0.21401185     0.09200
H857        H  0.10501212  0.00224130  0.22902589     0.12500
H858        H  0.12452038  0.11087867  0.23626852     0.14400
C859        C  0.05548835  0.45170688  0.29519569    -0.01100
C860        C  0.05893507  0.42093098  0.29309513    -0.09200
C861        C  0.06912606  0.40609060  0.30309619    -0.18000
C862        C  0.07615298  0.42181019  0.31551343     0.04400
C863        C  0.07514859  0.45457626  0.31727275     0.18600
C864        C  0.06466067  0.46896512  0.30720120    -0.19400
C865        C  0.08408368  0.47252709  0.32911852    -0.20700
C866        C  0.09411879  0.45853220  0.33933923    -0.19200
C867        C  0.09426206  0.42564634  0.33806804     0.20000
C868        C  0.08441774  0.40640801  0.32620917     0.02100
C869        C  0.08277368  0.37229468  0.32560630    -0.14000
C870        C  0.09304033  0.35913423  0.33600172    -0.11700
C871        C  0.10521892  0.37932226  0.34736713     0.01600
C872        C  0.10472082  0.41207452  0.34850772    -0.23900
H873        H  0.05238413  0.40746027  0.28385783     0.09600
H874        H  0.07116609  0.38229589  0.30081940     0.13200
H875        H  0.06772273  0.99704721  0.30988857     0.11900
H876        H  0.08498593  0.99857360  0.33186338     0.13100
H877        H  0.10143528  0.47331778  0.34833310     0.12100
H878        H  0.07374198  0.35513851  0.31723373     0.09200
H879        H  0.09241230  0.33329257  0.33498069     0.12500
H880        H  0.11390356  0.42773794  0.35729515     0.14400
C881        C  0.12647358  0.22606920  0.34835558    -0.01100
C882        C  0.09063897  0.19837102  0.34839825    -0.09200
C883        C  0.07583243  0.17700807  0.33750830    -0.18000
C884        C  0.09676621  0.18278705  0.32628612     0.04400
C885        C  0.13402747  0.20839644  0.32680955     0.18600
C886        C  0.14841115  0.23007992  0.33774038    -0.19400
C887        C  0.15639035  0.21281770  0.31631043    -0.20700
C888        C  0.14242613  0.19191759  0.30529094    -0.19200
C889        C  0.10555587  0.16738237  0.30431680     0.20000
C890        C  0.08210360  0.16362801  0.31465000     0.02100
C891        C  0.04485870  0.14088870  0.31290166    -0.14000
C892        C  0.03179622  0.11943012  0.30200309    -0.11700
C893        C  0.05523063  0.12035501  0.29244127     0.01600
C894        C  0.09194811  0.14555128  0.29329902    -0.23900
H895        H  0.07336291  0.19491914  0.35652568     0.09600
H896        H  0.04787720  0.15644090  0.33811491     0.13200
H897        H  0.17639039  0.25135456  0.33777882     0.11900
H898        H  0.18491824  0.23218313  0.31669642     0.13100
H899        H  0.16049915  0.19517762  0.29745086     0.12100
H900        H  0.02521285  0.13861050  0.31988701     0.09200
H901        H  0.49452136  0.08453673  0.30493865     0.12500
H902        H  0.11011205  0.14628352  0.28587208     0.14400
C903        C  0.38733869  0.43081519  0.29255501    -0.01100
C904        C  0.39269325  0.41426143  0.30327580    -0.09200
C905        C  0.37013101  0.40510134  0.31388186    -0.18000
C906        C  0.34172647  0.41287431  0.31414142     0.04400
C907        C  0.33439480  0.42650917  0.30274755     0.18600
C908        C  0.35713424  0.43516242  0.29202545    -0.19400
C909        C  0.30537626  0.43285846  0.30234145    -0.20700
C910        C  0.28374165  0.42643284  0.31308940    -0.19200
C911        C  0.29121389  0.41437387  0.32455894     0.20000
C912        C  0.32062215  0.40793928  0.32532969     0.02100
C913        C  0.32800896  0.39750069  0.33733737    -0.14000
C914        C  0.30559537  0.39131822  0.34790762    -0.11700
C915        C  0.27534485  0.39538709  0.34681471     0.01600
C916        C  0.26897623  0.40803895  0.33523333    -0.23900
H917        H  0.41559586  0.41000247  0.30370072     0.09600
H918        H  0.37617633  0.39279243  0.32182122     0.13200
H919        H  0.35289518  0.44783692  0.28368108     0.11900
H920        H  0.29948316  0.44302264  0.29368170     0.13100
H921        H  0.26128470  0.43135575  0.31247815     0.12100
H922        H  0.35068203  0.39356343  0.33885776     0.09200
H923        H  0.31092449  0.38150879  0.35675558     0.12500
H924        H  0.24574713  0.41167176  0.33437919     0.14400
C925        C  0.29624601  0.09870265  0.45092756    -0.01100
C926        C  0.26851009  0.09392393  0.44282811    -0.09200
C927        C  0.25342994  0.06474517  0.43431115    -0.18000
C928        C  0.26633382  0.03977888  0.43350473     0.04400
C929        C  0.29447070  0.04480186  0.44190308     0.18600
C930        C  0.30903399  0.07406735  0.45055206    -0.19400
C931        C  0.30813493  0.02085047  0.44151399    -0.20700
C932        C  0.29449939  0.99191021  0.43292116    -0.19200
C933        C  0.26691048  0.98627698  0.42449891     0.20000
C934        C  0.25245673  0.01016162  0.42464899     0.02100
C935        C  0.23065995  0.50670188  0.41385044    -0.14000
C936        C  0.21706038  0.47713821  0.40548393    -0.11700
C937        C  0.22816720  0.45119578  0.40625826     0.01600
C938        C  0.25370592  0.45546870  0.41543793    -0.23900
H939        H  0.25850645  0.11297338  0.44309942     0.09600
H940        H  0.23198342  0.06277217  0.42843922     0.13200
H941        H  0.33085819  0.07823272  0.45681537     0.11900
H942        H  0.32956770  0.02456077  0.44788910     0.13100
H943        H  0.30561333  0.97379914  0.43286220     0.12100
H944        H  0.22092846  0.52556479  0.41254818     0.09200
H945        H  0.19767451  0.47454731  0.39834527     0.12500
H946        H  0.26231364  0.43533924  0.41609552     0.14400
C947        C  0.40278165  0.20265452  0.45044311    -0.01100
C948        C  0.42848050  0.23951733  0.45158039    -0.09200
C949        C  0.45807300  0.25536622  0.44333522    -0.18000
C950        C  0.46266401  0.23464587  0.43358629     0.04400
C951        C  0.43655278  0.19702329  0.43262872     0.18600
C952        C  0.40673007  0.18157410  0.44092016    -0.19400
C953        C  0.94329495  0.17754458  0.42162244    -0.20700
C954        C  0.97327535  0.19250006  0.41360270    -0.19200
C955        C  0.99899062  0.22954553  0.41439034     0.20000
C956        C  0.49222097  0.24980745  0.42479790     0.02100
C957        C  0.51818943  0.28731348  0.42453815    -0.14000
C958        C  0.04945832  0.30408837  0.41487843    -0.11700
C959        C  0.05466973  0.28121678  0.40647994     0.01600
C960        C  0.02916378  0.24395322  0.40622190    -0.23900
H961        H  0.42546716  0.25620537  0.45883637     0.09600
H962        H  0.47693928  0.28379385  0.44490377     0.13200
H963        H  0.38670722  0.15294520  0.44009686     0.11900
H964        H  0.92373262  0.14883098  0.42071334     0.13100
H965        H  0.97626532  0.17499774  0.40668120     0.12100
H966        H  0.51707354  0.30693723  0.43085692     0.09200
H967        H  0.06863208  0.33301621  0.41517770     0.12500
H968        H  0.03263999  0.22617006  0.39956428     0.14400
C969        C  0.30095517  0.20670423  0.45131879    -0.01100
C970        C  0.32385004  0.23705200  0.44395644    -0.09200
C971        C  0.31001050  0.25272419  0.43564405    -0.18000
C972        C  0.27248626  0.23777357  0.43422928     0.04400
C973        C  0.24933241  0.20643201  0.44164074     0.18600
C974        C  0.26374445  0.19150535  0.45023497    -0.19400
C975        C  0.21204634  0.18984379  0.44023127    -0.20700
C976        C  0.19718970  0.20349428  0.43151719    -0.19200
C977        C  0.21922338  0.23448331  0.42416520     0.20000
C978        C  0.25717449  0.25236860  0.42555394     0.02100
C979        C  0.27817959  0.28416304  0.41820510    -0.14000
C980        C  0.26225933  0.29734371  0.40974444    -0.11700
C981        C  0.22491354  0.27938880  0.40821251     0.01600
C982        C  0.20352043  0.24785469  0.41546738    -0.23900
H983        H  0.35269622  0.24867712  0.44465745     0.09600
H984        H  0.32944415  0.27600510  0.43027287     0.13200
H985        H  0.24612677  0.16751004  0.45583964     0.11900
H986        H  0.19424941  0.16586926  0.44579923     0.13100
H987        H  0.16823954  0.18979488  0.43055895     0.12100
H988        H  0.30699631  0.29979501  0.41884729     0.09200
H989        H  0.27948721  0.32186424  0.40434508     0.12500
H990        H  0.17455895  0.23394626  0.41448838     0.14400
Zn991      Zn  0.14195573  0.78367213  0.38632784     1.49700
Zn992      Zn  0.21797787  0.85938054  0.38510767     1.49400
Zn993      Zn  0.16651559  0.83108855  0.36176460     1.49100
Zn994      Zn  0.14383254  0.86148454  0.38484141     1.49500
O995        O  0.16756865  0.83391893  0.37993129    -1.84000
O996        O  0.17452331  0.77587672  0.39820022    -0.74600
O997        O  0.25242056  0.87823907  0.36980651    -0.74400
O998        O  0.15156162  0.78228343  0.35540852    -0.73900
O999        O  0.22789395  0.82580191  0.39568421    -0.74600
O1000       O  0.12687276  0.74550672  0.37203255    -0.74200
O1001       O  0.21326360  0.86241716  0.35400257    -0.74800
O1002       O  0.12622895  0.87794541  0.36934733    -0.74200
O1003       O  0.22792951  0.90231987  0.39631479    -0.75000
O1004       O  0.13473061  0.84633632  0.35414108    -0.74300
O1005       O  0.17773194  0.90544018  0.39510033    -0.74800
O1006       O  0.10126469  0.82996002  0.39618619    -0.74700
O1007       O  0.09813398  0.77566896  0.39624463    -0.74500
C1008       C  0.20804691  0.79434178  0.40056693     0.77300
C1009       C  0.24529830  0.87811722  0.35794943     0.77800
C1010       C  0.13486732  0.75054196  0.36013648     0.76700
C1011       C  0.12308976  0.86720820  0.35774540     0.77100
C1012       C  0.20962148  0.91761741  0.39918761     0.78200
C1013       C  0.08606019  0.79661362  0.39963653     0.77300
Zn1014     Zn  0.50084985  0.00527927  0.28132393     1.49700
Zn1015     Zn  0.02581215  0.97671640  0.25883219     1.49400
Zn1016     Zn  0.44808203  0.97990663  0.25866641     1.49100
Zn1017     Zn  0.02465997  0.55319224  0.25965682     1.49500
O1018       O  0.49890804  0.00475511  0.26322014    -1.84000
O1019       O  0.03535983  0.99083756  0.28977531    -0.74600
O1020       O  0.48750119  0.93360282  0.24758643    -0.74400
O1021       O  0.41468335  0.96130211  0.27421515    -0.73900
O1022       O  0.04526937  0.96131226  0.27416448    -0.74600
O1023       O  0.45493208  0.97277219  0.28929258    -0.74200
O1024       O  0.43710071  0.93656795  0.24760342    -0.74800
O1025       O  0.49010950  0.56142096  0.24679678    -0.74200
O1026       O  0.06349618  0.50751149  0.24768982    -0.75000
O1027       O  0.43794752  0.50950585  0.24743757    -0.74300
O1028       O  0.06717429  0.56193274  0.24864339    -0.74800
O1029       O  0.04240458  0.58589090  0.27562029    -0.74700
O1030       O  0.00834942  0.54577165  0.29038403    -0.74500
C1031       C  0.04793035  0.97100071  0.28589500     0.77300
C1032       C  0.45490006  0.92105388  0.24426357     0.77800
C1033       C  0.42263279  0.95920384  0.28581201     0.76700
C1034       C  0.45710635  0.54235202  0.24373414     0.77100
C1035       C  0.07868071  0.54107334  0.24456506     0.78200
C1036       C  0.03072468  0.57811093  0.28712447     0.77300
C1037       C  0.17114605  0.83796829  0.81202470     0.45600
H1038       H  0.17200066  0.83962068  0.82265554    -0.03400
C1039       C  0.16946214  0.83429813  0.78703722     0.45700
H1040       H  0.16887228  0.83251466  0.77641011    -0.03400
C1041       C  0.15289263  0.85790352  0.80556857    -0.17100
C1042       C  0.20892872  0.85520504  0.80560170    -0.16900
C1043       C  0.15065650  0.79841913  0.80671460    -0.17200
C1044       C  0.15163112  0.85500400  0.79236500    -0.17200
C1045       C  0.20729802  0.85305841  0.79248957    -0.16800
C1046       C  0.15008574  0.79710979  0.79353959    -0.17100
C1047       C  0.50155019  0.00035480  0.85785473     0.45600
H1048       H  0.50308396  0.00107442  0.86848046    -0.03400
C1049       C  0.50003758  0.99987534  0.83284473     0.45700
H1050       H  0.49926918  0.99944918  0.82220261    -0.03400
C1051       C  0.02114482  0.54103138  0.85092727    -0.17100
C1052       C  0.02227541  0.98558233  0.85185615    -0.16900
C1053       C  0.46344688  0.98126677  0.85253916    -0.17200
C1054       C  0.02043025  0.54072656  0.83774931    -0.17200
C1055       C  0.02252848  0.98378957  0.83863010    -0.16800
C1056       C  0.46216120  0.97987796  0.83930914    -0.17100
C1057       C  0.16202103  0.83130181  0.49740656     0.45600
H1058       H  0.16177444  0.83071863  0.48676107    -0.03400
C1059       C  0.16263052  0.83258754  0.52241926     0.45700
H1060       H  0.16270515  0.83319929  0.53307149    -0.03400
C1061       C  0.17858349  0.80940083  0.50359887    -0.17100
C1062       C  0.18381699  0.87035229  0.50318439    -0.16900
C1063       C  0.12406596  0.81505383  0.50364286    -0.17200
C1064       C  0.17886126  0.81061700  0.51680474    -0.17200
C1065       C  0.18382186  0.87033254  0.51638217    -0.16800
C1066       C  0.12507604  0.81583106  0.51681763    -0.17100
C1067       C  0.33364814  0.66770423  0.45353460     0.45600
H1068       H  0.33379680  0.66824617  0.44286948    -0.03400
C1069       C  0.33295811  0.66652351  0.47857403     0.45700
H1070       H  0.33266382  0.66604294  0.48922072    -0.03400
C1071       C  0.31484794  0.68660373  0.45950312    -0.17100
C1072       C  0.31460995  0.62939995  0.45914993    -0.16900
C1073       C  0.37101695  0.68632175  0.45929851    -0.17200
C1074       C  0.31393663  0.68626141  0.47264904    -0.17200
C1075       C  0.31370775  0.62806646  0.47231701    -0.16800
C1076       C  0.37137524  0.68580471  0.47247594    -0.17100
Zn1077     Zn  0.31004322  0.61780210  0.60284190     1.49700
Zn1078     Zn  0.30706891  0.69223494  0.60332942     1.49400
Zn1079     Zn  0.38317191  0.69449393  0.60315236     1.49100
Zn1080     Zn  0.33331999  0.66988993  0.57843000     1.49500
O1081       O  0.33343046  0.66856858  0.59702266    -1.84000
O1082       O  0.26708066  0.60600566  0.61407565    -0.74600
O1083       O  0.33836241  0.73416754  0.61488963    -0.74400
O1084       O  0.39441241  0.66130606  0.61371589    -0.73900
O1085       O  0.26638695  0.65818964  0.61456431    -0.74600
O1086       O  0.34319655  0.60867174  0.61385978    -0.74200
O1087       O  0.39048298  0.73484479  0.61506006    -0.74800
O1088       O  0.38317656  0.69508491  0.57154497    -0.74200
O1089       O  0.28705270  0.70925226  0.58899234    -0.75000
O1090       O  0.41893082  0.71581632  0.58852025    -0.74300
O1091       O  0.30843149  0.69576796  0.57166210    -0.74800
O1092       O  0.30892365  0.61985136  0.57096391    -0.74700
O1093       O  0.29490862  0.58320727  0.58786540    -0.74500
C1094       C  0.25395972  0.62537024  0.61820314     0.77300
C1095       C  0.37031834  0.74705948  0.61898629     0.77800
C1096       C  0.37559705  0.62837103  0.61746104     0.76700
C1097       C  0.41429595  0.71242832  0.57643649     0.77100
C1098       C  0.29061424  0.70911355  0.57685414     0.78200
C1099       C  0.29583315  0.58815222  0.57579013     0.77300
Zn1100     Zn  0.02687323  0.97737541  0.70735292     1.49700
Zn1101     Zn  0.45432067  0.98094411  0.70743985     1.49400
Zn1102     Zn  0.00121928  0.49842487  0.73221684     1.49100
Zn1103     Zn  0.03041485  0.55232241  0.70791076     1.49500
O1104       O  0.00371440  0.50130072  0.71368134    -1.84000
O1105       O  0.49399197  0.93488520  0.69649539    -0.74600
O1106       O  0.41709080  0.96346436  0.72154137    -0.74400
O1107       O  0.02749679  0.97841688  0.73894034    -0.73900
O1108       O  0.44424351  0.93883829  0.69608006    -0.74600
O1109       O  0.04514461  0.95966439  0.72190223    -0.74200
O1110       O  0.45018778  0.97294656  0.73894237    -0.74800
O1111       O  0.04781625  0.58618084  0.72320981    -0.74200
O1112       O  0.44583683  0.51344766  0.69591822    -0.75000
O1113       O  0.02500803  0.54813312  0.73979930    -0.74300
O1114       O  0.49810210  0.56499750  0.69570992    -0.74800
O1115       O  0.07316625  0.56118363  0.69719402    -0.74700
O1116       O  0.07008163  0.50719792  0.69660833    -0.74500
C1117       C  0.46245409  0.92422710  0.69232034     0.77300
C1118       C  0.41990571  0.96081945  0.73358134     0.77800
C1119       C  0.04330022  0.96266340  0.73399883     0.76700
C1120       C  0.04299091  0.58019893  0.73524431     0.77100
C1121       C  0.46592474  0.54564492  0.69174127     0.78200
C1122       C  0.08475490  0.54042258  0.69317526     0.77300
C1123       C  0.33060930  0.66811863  0.16601003     0.45600
H1124       H  0.33103252  0.66902773  0.15536724    -0.03400
C1125       C  0.32939768  0.66598063  0.19107858     0.45700
H1126       H  0.32896967  0.66505438  0.20174239    -0.03400
C1127       C  0.29225219  0.64973592  0.17200795    -0.17100
C1128       C  0.34820769  0.64691808  0.17181599    -0.16900
C1129       C  0.35060986  0.70624920  0.17248780    -0.17200
C1130       C  0.29225259  0.64867553  0.18516070    -0.17200
C1131       C  0.34724254  0.64632513  0.18495167    -0.16800
C1132       C  0.34944292  0.70439077  0.18563889    -0.17100
C1133       C  0.50245507  0.50421174  0.12115277     0.45600
H1134       H  0.50306222  0.50475297  0.11048606    -0.03400
C1135       C  0.00162443  0.50269477  0.14532919     0.45700
H1136       H  0.00127796  0.50217729  0.15597483    -0.03400
C1137       C  0.48447936  0.52413504  0.12696028    -0.17100
C1138       C  0.48229973  0.96516951  0.12559883    -0.16900
C1139       C  0.03963974  0.52191427  0.12612089    -0.17200
C1140       C  0.48324055  0.52396434  0.14010266    -0.17200
C1141       C  0.48030642  0.96350377  0.13876348    -0.16800
C1142       C  0.03993545  0.52129280  0.13927127    -0.17100
Zn1143     Zn  0.13974481  0.85793245  0.93755220     1.49700
Zn1144     Zn  0.21619827  0.86206348  0.93785752     1.49400
Zn1145     Zn  0.14375042  0.78499421  0.93777146     1.49100
Zn1146     Zn  0.16885835  0.83570753  0.91300699     1.49500
O1147       O  0.16707004  0.83507110  0.93156043    -1.84000
O1148       O  0.16813665  0.89645110  0.95069537    -0.74600
O1149       O  0.22639209  0.83112659  0.94953658    -0.74400
O1150       O  0.10200631  0.77457217  0.94928733    -0.73900
O1151       O  0.22274846  0.90309502  0.94905794    -0.74600
O1152       O  0.09480146  0.82276510  0.94687609    -0.74200
O1153       O  0.17706818  0.77678267  0.94885808    -0.74800
O1154       O  0.14582211  0.78511359  0.90593002    -0.74200
O1155       O  0.25326174  0.88116424  0.92371716    -0.75000
O1156       O  0.12644570  0.74924098  0.92314648    -0.74300
O1157       O  0.21894098  0.86258255  0.90639982    -0.74800
O1158       O  0.14515591  0.86206916  0.90580702    -0.74700
O1159       O  0.12665798  0.87987919  0.92290790    -0.74500
C1160       C  0.20090486  0.91172880  0.95406837     0.77300
C1161       C  0.20834691  0.79811890  0.95316461     0.77800
C1162       C  0.08536403  0.79177767  0.95180161     0.76700
C1163       C  0.12982738  0.75359053  0.91103155     0.77100
C1164       C  0.24966016  0.87926403  0.91159336     0.78200
C1165       C  0.13036950  0.87882420  0.91081355     0.77300
Zn1166     Zn  0.33150137  0.66575276  0.02854267     1.49700
Zn1167     Zn  0.38517452  0.69205969  0.05162480     1.49400
Zn1168     Zn  0.31163494  0.69631298  0.05245061     1.49100
Zn1169     Zn  0.30868673  0.61855599  0.05339154     1.49500
O1170       O  0.33438308  0.66830538  0.04680630    -1.84000
O1171       O  0.37878899  0.69568263  0.02050531    -0.74600
O1172       O  0.39730514  0.73646737  0.06237014    -0.74400
O1173       O  0.29397026  0.71407268  0.03757533    -0.73900
O1174       O  0.41847172  0.70801809  0.03598922    -0.74600
O1175       O  0.29982633  0.68290502  0.02150002    -0.74200
O1176       O  0.34717349  0.74006573  0.06213291    -0.74800
O1177       O  0.26633630  0.61165345  0.06364872    -0.74200
O1178       O  0.39468910  0.65856030  0.06252332    -0.75000
O1179       O  0.26912019  0.66565916  0.06413553    -0.74300
O1180       O  0.34085216  0.60944644  0.06491152    -0.74800
O1181       O  0.29157176  0.58018334  0.03934246    -0.74700
O1182       O  0.31424983  0.61599873  0.02231211    -0.74500
C1183       C  0.41095600  0.70902794  0.02424091     0.77300
C1184       C  0.37960624  0.75222732  0.06551981     0.77800
C1185       C  0.28933611  0.70407960  0.02589167     0.76700
C1186       C  0.25410898  0.63215021  0.06737015     0.77100
C1187       C  0.37434079  0.62713926  0.06733712     0.78200
C1188       C  0.29806014  0.58457745  0.02735628     0.77300
C1189       C  0.22288730  0.78506035  0.96331202    -0.01100
C1190       C  0.24878969  0.81000336  0.97173875    -0.09200
C1191       C  0.25884607  0.79792232  0.98254145    -0.18000
C1192       C  0.24350511  0.76029335  0.98514398     0.04400
C1193       C  0.21904178  0.73516894  0.97608287     0.18600
C1194       C  0.20852573  0.74768721  0.96543412    -0.19400
C1195       C  0.20516953  0.69768927  0.97770673    -0.20700
C1196       C  0.21570223  0.68459477  0.98803219    -0.19200
C1197       C  0.23907472  0.70858790  0.99725237     0.20000
C1198       C  0.25221217  0.74667357  0.99623462     0.02100
C1199       C  0.27339534  0.76934132  0.00637695    -0.14000
C1200       C  0.28337088  0.75499065  0.01659611    -0.11700
C1201       C  0.27285156  0.71794633  0.01686959     0.01600
C1202       C  0.25001442  0.69476495  0.00737466    -0.23900
H1203       H  0.26039722  0.83908307  0.97025446     0.09600
H1204       H  0.27885812  0.81861619  0.98861753     0.13200
H1205       H  0.18885611  0.72826145  0.95883520     0.11900
H1206       H  0.18663815  0.67843013  0.97080323     0.13100
H1207       H  0.20532311  0.65548045  0.98885744     0.12100
H1208       H  0.28273325  0.79819510  0.00663727     0.09200
H1209       H  0.30090466  0.77320336  0.02393558     0.12500
H1210       H  0.24142849  0.66590965  0.00772771     0.14400
C1211       C  0.21377567  0.93857713  0.96454731    -0.01100
C1212       C  0.19001190  0.93747658  0.97403545    -0.09200
C1213       C  0.20282960  0.95987603  0.98481633    -0.18000
C1214       C  0.23996372  0.98448514  0.98631104     0.04400
C1215       C  0.26365048  0.98655244  0.97633062     0.18600
C1216       C  0.25050761  0.96330463  0.96573423    -0.19400
C1217       C  0.30032788  0.01195162  0.97692239    -0.20700
C1218       C  0.31886727  0.53545850  0.98811108    -0.19200
C1219       C  0.29579464  0.53159101  0.99827694     0.20000
C1220       C  0.25908110  0.50405196  0.99800331     0.02100
C1221       C  0.23763133  0.49967914  0.00897720    -0.14000
C1222       C  0.25125083  0.52415712  0.01921287    -0.11700
C1223       C  0.28635629  0.55341311  0.01870444     0.01600
C1224       C  0.30890914  0.55608693  0.00851460    -0.23900
H1225       H  0.16148472  0.91840676  0.97332545     0.09600
H1226       H  0.18304297  0.95762182  0.99172986     0.13200
H1227       H  0.26899384  0.96447610  0.95835602     0.11900
H1228       H  0.31846007  0.01363748  0.96932577     0.13100
H1229       H  0.34699390  0.55622073  0.98836342     0.12100
H1230       H  0.21013544  0.47806589  0.00980562     0.09200
H1231       H  0.23364518  0.52158496  0.02712393     0.12500
H1232       H  0.33640239  0.57846691  0.00828598     0.14400
C1233       C  0.05664819  0.77722934  0.96155198    -0.01100
C1234       C  0.02932741  0.78615713  0.96129858    -0.09200
C1235       C  0.00546115  0.77720896  0.97159584    -0.18000
C1236       C  0.00889904  0.75981666  0.98266621     0.04400
C1237       C  0.03649994  0.75048080  0.98275081     0.18600
C1238       C  0.05952759  0.75860870  0.97216109    -0.19400
C1239       C  0.04158447  0.73389333  0.99352330    -0.20700
C1240       C  0.52236870  0.72524458  0.00447803    -0.19200
C1241       C  0.49314295  0.73131802  0.00418589     0.20000
C1242       C  0.48713819  0.74751391  0.99319454     0.02100
C1243       C  0.45730082  0.75310618  0.99335471    -0.14000
C1244       C  0.43374675  0.74184858  0.00373610    -0.11700
C1245       C  0.43925485  0.72518216  0.01438797     0.01600
C1246       C  0.46941341  0.72065529  0.01472188    -0.23900
H1247       H  0.02683931  0.80074747  0.95319298     0.09600
H1248       H  0.98521776  0.78506583  0.97069611     0.13200
H1249       H  0.08109965  0.75223583  0.97249066     0.11900
H1250       H  0.06281457  0.72703402  0.99366604     0.13100
H1251       H  0.52710786  0.71289168  0.01279401     0.12100
H1252       H  0.45095856  0.76552300  0.98554858     0.09200
H1253       H  0.41058253  0.74568346  0.00333725     0.12500
H1254       H  0.47348557  0.70735510  0.02290938     0.14400
C1255       C  0.46559250  0.93340539  0.11692662    -0.01100
C1256       C  0.44486179  0.93346554  0.10666505    -0.09200
C1257       C  0.43056790  0.90478881  0.09792743    -0.18000
C1258       C  0.43694104  0.87513301  0.09917237     0.04400
C1259       C  0.45792222  0.87524941  0.10970719     0.18600
C1260       C  0.47209907  0.90431454  0.11841133    -0.19400
C1261       C  0.46506184  0.84663005  0.11140161    -0.20700
C1262       C  0.45219102  0.81794272  0.10273675    -0.19200
C1263       C  0.43165670  0.81708560  0.09223112     0.20000
C1264       C  0.42348454  0.84552913  0.09032982     0.02100
C1265       C  0.40198705  0.84291793  0.07970516    -0.14000
C1266       C  0.38844659  0.81289809  0.07155645    -0.11700
C1267       C  0.39651919  0.78504792  0.07353251     0.01600
C1268       C  0.41865145  0.78753457  0.08372320    -0.23900
H1269       H  0.43978244  0.95594349  0.10537722     0.09600
H1270       H  0.41497707  0.90690244  0.09026156     0.13200
H1271       H  0.99825875  0.91092649  0.12236718     0.11900
H1272       H  0.99565109  0.85616930  0.11401156     0.13100
H1273       H  0.45824651  0.79620437  0.10428613     0.12100
H1274       H  0.39458907  0.86322527  0.07752952     0.09200
H1275       H  0.37140156  0.81134515  0.06367004     0.12500
H1276       H  0.42454042  0.76567998  0.08532892     0.14400
C1277       C  0.38983399  0.61092412  0.07600788    -0.01100
C1278       C  0.36761641  0.57737371  0.08199361    -0.09200
C1279       C  0.38178593  0.56223412  0.09040876    -0.18000
C1280       C  0.41892625  0.58026097  0.09314512     0.04400
C1281       C  0.44149858  0.61393808  0.08684495     0.18600
C1282       C  0.42683445  0.62894797  0.07844334    -0.19400
C1283       C  0.47858545  0.63247316  0.08896239    -0.20700
C1284       C  0.49387583  0.61818388  0.09717979    -0.19200
C1285       C  0.47237250  0.58530253  0.10362384     0.20000
C1286       C  0.43449246  0.56604528  0.10184279     0.02100
C1287       C  0.41386763  0.53353525  0.10892483    -0.14000
C1288       C  0.43025721  0.52057297  0.11726095    -0.11700
C1289       C  0.46746220  0.53929612  0.11868135     0.01600
C1290       C  0.48850963  0.57148005  0.11186042    -0.23900
H1291       H  0.33897541  0.56270778  0.08023290     0.09600
H1292       H  0.36291238  0.53629119  0.09455465     0.13200
H1293       H  0.44437692  0.65480421  0.07379474     0.11900
H1294       H  0.49593229  0.65812938  0.08417078     0.13100
H1295       H  0.52270776  0.63305116  0.09855636     0.12100
H1296       H  0.38504494  0.51760299  0.10832214     0.09200
H1297       H  0.41387691  0.49554255  0.12253311     0.12500
H1298       H  0.51743483  0.58581444  0.11306443     0.14400
C1299       C  0.07177574  0.53786142  0.11781598    -0.01100
C1300       C  0.07756689  0.51501691  0.10970806    -0.09200
C1301       C  0.10679399  0.52931466  0.10134192    -0.18000
C1302       C  0.13090088  0.56732033  0.10069039     0.04400
C1303       C  0.12437773  0.59049188  0.10883842     0.18600
C1304       C  0.09514397  0.57553970  0.11742654    -0.19400
C1305       C  0.14677452  0.62835642  0.10822484    -0.20700
C1306       C  0.17561497  0.64378359  0.09967350    -0.19200
C1307       C  0.18311919  0.62167693  0.09168615     0.20000
C1308       C  0.16098766  0.58309551  0.09216717     0.02100
C1309       C  0.17011961  0.56186510  0.08417625    -0.14000
C1310       C  0.19997878  0.57813375  0.07613616    -0.11700
C1311       C  0.22174606  0.61607717  0.07563729     0.01600
C1312       C  0.21294495  0.63782089  0.08333569    -0.23900
H1313       H  0.05928703  0.48584007  0.10987542     0.09600
H1314       H  0.10929860  0.50985047  0.09538701     0.13200
H1315       H  0.09002052  0.59315490  0.12361076     0.11900
H1316       H  0.14182457  0.64617819  0.11434975     0.13100
H1317       H  0.19237027  0.67319081  0.09939275     0.12100
H1318       H  0.15515447  0.53253657  0.08401984     0.09200
H1319       H  0.20606940  0.56069427  0.07026018     0.12500
H1320       H  0.22981599  0.66723108  0.08308073     0.14400
C1321       C  0.36392578  0.62758954  0.16456863    -0.01100
C1322       C  0.34889340  0.58986718  0.16623127    -0.09200
C1323       C  0.36790624  0.57208754  0.16283393    -0.18000
C1324       C  0.40290136  0.59153933  0.15755518     0.04400
C1325       C  0.41701563  0.62937055  0.15498726     0.18600
C1326       C  0.39762820  0.64705616  0.15859124    -0.19400
C1327       C  0.45079656  0.64944350  0.14914273    -0.20700
C1328       C  0.47081201  0.63285013  0.14577948    -0.19200
C1329       C  0.45812639  0.59595520  0.14851533     0.20000
C1330       C  0.42429997  0.57486187  0.15467211     0.02100
C1331       C  0.41356694  0.53808590  0.15769572    -0.14000
C1332       C  0.43434997  0.52233359  0.15394350    -0.11700
C1333       C  0.46645683  0.54264044  0.14713759     0.01600
C1334       C  0.47871123  0.57978152  0.14483814    -0.23900
H1335       H  0.32295725  0.57437157  0.17089536     0.09600
H1336       H  0.35472492  0.54316078  0.16463398     0.13200
H1337       H  0.40961440  0.67631409  0.15741257     0.11900
H1338       H  0.46174927  0.67818333  0.14707905     0.13100
H1339       H  0.99702698  0.64864545  0.14064152     0.12100
H1340       H  0.38891901  0.52064588  0.16277032     0.09200
H1341       H  0.42742200  0.99278103  0.15471163     0.12500
H1342       H  0.00374091  0.59508891  0.13863887     0.14400
C1343       C  0.45884483  0.92819757  0.14568954    -0.01100
C1344       C  0.42228840  0.90602504  0.14288509    -0.09200
C1345       C  0.40350914  0.86941622  0.14670080    -0.18000
C1346       C  0.42083509  0.85356899  0.15347528     0.04400
C1347       C  0.45749161  0.87675870  0.15686307     0.18600
C1348       C  0.47598328  0.91369646  0.15303565    -0.19400
C1349       C  0.47581461  0.86268727  0.16374408    -0.20700
C1350       C  0.45863103  0.82619780  0.16739387    -0.19200
C1351       C  0.42273412  0.80260365  0.16414591     0.20000
C1352       C  0.40329020  0.81569501  0.15701240     0.02100
C1353       C  0.36722168  0.79022085  0.15379438    -0.14000
C1354       C  0.35076887  0.75392537  0.15808166    -0.11700
C1355       C  0.36968198  0.74187775  0.16562388     0.01600
C1356       C  0.40594029  0.76611313  0.16828492    -0.23900
H1357       H  0.40861377  0.91672076  0.13714769     0.09600
H1358       H  0.37567525  0.85402109  0.14397779     0.13200
H1359       H  0.00211145  0.92998549  0.15479825     0.11900
H1360       H  0.00177019  0.88061777  0.16673639     0.13100
H1361       H  0.47357431  0.81634360  0.17282718     0.12100
H1362       H  0.35084865  0.79772398  0.14819130     0.09200
H1363       H  0.32267538  0.73566156  0.15600265     0.12500
H1364       H  0.42073547  0.75677286  0.17407483     0.14400
C1365       C  0.25809694  0.63577940  0.16482871    -0.01100
C1366       C  0.23600650  0.65083304  0.16730651    -0.09200
C1367       C  0.19992917  0.63267448  0.16369612    -0.18000
C1368       C  0.18462767  0.59854836  0.15743823     0.04400
C1369       C  0.20786014  0.58462391  0.15416024     0.18600
C1370       C  0.24423265  0.60325802  0.15788575    -0.19400
C1371       C  0.19436319  0.55161878  0.14752809    -0.20700
C1372       C  0.15831875  0.53202742  0.14411884    -0.19200
C1373       C  0.13462058  0.54452090  0.14747642     0.20000
C1374       C  0.14722237  0.57773548  0.15432252     0.02100
C1375       C  0.12173776  0.58847974  0.15774276    -0.14000
C1376       C  0.08587934  0.56831464  0.15378132    -0.11700
C1377       C  0.07430804  0.53683112  0.14641788     0.01600
C1378       C  0.09851140  0.52442140  0.14370091    -0.23900
H1379       H  0.24631322  0.67591420  0.17273346     0.09600
H1380       H  0.18454030  0.64568385  0.16616852     0.13200
H1381       H  0.26116090  0.59134116  0.15609114     0.11900
H1382       H  0.21183183  0.54087401  0.14494375     0.13100
H1383       H  0.14885392  0.50677045  0.13885810     0.12100
H1384       H  0.12887023  0.61273879  0.16323935     0.09200
H1385       H  0.06762728  0.57845761  0.15586428     0.12500
H1386       H  0.08953817  0.49997232  0.13797849     0.14400
C1387       C  0.45182474  0.55903793  0.68134942    -0.01100
C1388       C  0.41692870  0.53632935  0.67676686    -0.09200
C1389       C  0.40446165  0.54557025  0.66589211    -0.18000
C1390       C  0.42646728  0.57822941  0.65914881     0.04400
C1391       C  0.46128048  0.60208774  0.66409943     0.18600
C1392       C  0.47372153  0.59223651  0.67503505    -0.19400
C1393       C  0.48344214  0.63556420  0.65807317    -0.20700
C1394       C  0.47145135  0.64622957  0.64742888    -0.19200
C1395       C  0.43733714  0.62329970  0.64233910     0.20000
C1396       C  0.41479923  0.58846592  0.64787607     0.02100
C1397       C  0.38143104  0.56555360  0.64194168    -0.14000
C1398       C  0.36969080  0.57792577  0.63165080    -0.11700
C1399       C  0.39081405  0.61336930  0.62683920     0.01600
C1400       C  0.42521340  0.63541361  0.63195327    -0.23900
H1401       H  0.39920494  0.51060430  0.68143106     0.09600
H1402       H  0.37732431  0.52659590  0.66305962     0.13200
H1403       H  0.50073259  0.61012230  0.67846167     0.11900
H1404       H  0.51001797  0.65393124  0.66175410     0.13100
H1405       H  0.48893490  0.67269969  0.64318260     0.12100
H1406       H  0.36356499  0.53804882  0.64511809     0.09200
H1407       H  0.34334335  0.55994973  0.62773058     0.12500
H1408       H  0.44213457  0.66266062  0.62818358     0.14400
C1409       C  0.44731346  0.89585533  0.68229475    -0.01100
C1410       C  0.41119961  0.88055180  0.67879779    -0.09200
C1411       C  0.39751567  0.85666499  0.66845264    -0.18000
C1412       C  0.41974760  0.84748066  0.66113011     0.04400
C1413       C  0.45633765  0.86291447  0.66477325     0.18600
C1414       C  0.46962023  0.88653290  0.67531848    -0.19400
C1415       C  0.47965633  0.85517584  0.65775266    -0.20700
C1416       C  0.46737891  0.83219740  0.64718992    -0.19200
C1417       C  0.43145570  0.81627504  0.64342747     0.20000
C1418       C  0.40708546  0.82371373  0.65031192     0.02100
C1419       C  0.37107746  0.80683135  0.64610116    -0.14000
C1420       C  0.35967866  0.78312239  0.63566580    -0.11700
C1421       C  0.38362536  0.77534850  0.62906820     0.01600
C1422       C  0.41961773  0.79241636  0.63292282    -0.23900
H1423       H  0.39342422  0.88747328  0.68397536     0.09600
H1424       H  0.36955337  0.84631664  0.66635081     0.13200
H1425       H  0.49774376  0.89862014  0.67782489     0.11900
H1426       H  0.50761349  0.86702034  0.66044039     0.13100
H1427       H  0.48609102  0.82666099  0.64196931     0.12100
H1428       H  0.35085394  0.81089373  0.65076016     0.09200
H1429       H  0.33164328  0.77004880  0.63298027     0.12500
H1430       H  0.43840240  0.78656228  0.62790028     0.14400
C1431       C  0.22558276  0.61061624  0.62817677    -0.01100
C1432       C  0.21045381  0.57436781  0.63225759    -0.09200
C1433       C  0.18810350  0.56210445  0.64303843    -0.18000
C1434       C  0.18047325  0.58599969  0.65017355     0.04400
C1435       C  0.19400876  0.62205946  0.64549971     0.18600
C1436       C  0.21628448  0.63396232  0.63462915    -0.19400
C1437       C  0.18575333  0.64626149  0.65182086    -0.20700
C1438       C  0.16394673  0.63525944  0.66267296    -0.19200
C1439       C  0.15073393  0.60014421  0.66765478     0.20000
C1440       C  0.15961620  0.57533800  0.66168371     0.02100
C1441       C  0.14744255  0.54104469  0.66755378    -0.14000
C1442       C  0.12497267  0.53073487  0.67827787    -0.11700
C1443       C  0.11396702  0.55420232  0.68352538     0.01600
C1444       C  0.12801732  0.58938695  0.67843035    -0.23900
H1445       H  0.21668685  0.55559759  0.62731322     0.09600
H1446       H  0.17737237  0.53385046  0.64557884     0.13200
H1447       H  0.22748959  0.66200301  0.63149275     0.11900
H1448       H  0.19596712  0.67378827  0.64827916     0.13100
H1449       H  0.15748958  0.65439679  0.66722936     0.12100
H1450       H  0.15457739  0.52146643  0.66402996     0.09200
H1451       H  0.11511886  0.50364264  0.68217311     0.12500
H1452       H  0.12017902  0.60803099  0.68253375     0.14400
C1453       C  0.28156031  0.55651080  0.56714183    -0.01100
C1454       C  0.28142548  0.52468538  0.57087731    -0.09200
C1455       C  0.26774159  0.49449996  0.56278816    -0.18000
C1456       C  0.24853408  0.99102288  0.55125216     0.04400
C1457       C  0.25283171  0.52733946  0.54708019     0.18600
C1458       C  0.26780924  0.55792252  0.55513614    -0.19400
C1459       C  0.23687102  0.52860533  0.53556527    -0.20700
C1460       C  0.21249460  0.99436602  0.52914424    -0.19200
C1461       C  0.21534102  0.96329132  0.53143433     0.20000
C1462       C  0.23436844  0.96161658  0.54230541     0.02100
C1463       C  0.23850593  0.93064986  0.54370372    -0.14000
C1464       C  0.22305396  0.90194551  0.53498772    -0.11700
C1465       C  0.20277149  0.90291524  0.52469722     0.01600
C1466       C  0.19900260  0.93369152  0.52296599    -0.23900
H1467       H  0.29213005  0.52317071  0.58009635     0.09600
H1468       H  0.26654786  0.96675034  0.56597159     0.13200
H1469       H  0.26760535  0.58247423  0.55225097     0.11900
H1470       H  0.23679977  0.55321223  0.53269158     0.13100
H1471       H  0.19840486  0.99599078  0.52079557     0.12100
H1472       H  0.25385170  0.92798035  0.55134784     0.09200
H1473       H  0.22672041  0.87858452  0.53636821     0.12500
H1474       H  0.18269939  0.93433911  0.51519498     0.14400
C1475       C  0.09311893  0.79977555  0.52531636    -0.01100
C1476       C  0.06607905  0.76365658  0.52359528    -0.09200
C1477       C  0.03599831  0.74814699  0.53156705    -0.18000
C1478       C  0.03235686  0.76827676  0.54173880     0.04400
C1479       C  0.06081321  0.80442852  0.54383725     0.18600
C1480       C  0.09071536  0.81990574  0.53556764    -0.19400
C1481       C  0.05934070  0.82469666  0.55422634    -0.20700
C1482       C  0.53251295  0.81254525  0.56279020    -0.19200
C1483       C  0.50376218  0.77722298  0.56093580     0.20000
C1484       C  0.00184795  0.75350912  0.55005026     0.02100
C1485       C  0.97125445  0.71898621  0.54800387    -0.14000
C1486       C  0.44461676  0.70780457  0.55694180    -0.11700
C1487       C  0.44535868  0.72786392  0.56771179     0.01600
C1488       C  0.47496491  0.76254965  0.56972634    -0.23900
H1489       H  0.06842256  0.74714199  0.51611388     0.09600
H1490       H  0.01653877  0.72007179  0.52969765     0.13200
H1491       H  0.11216815  0.84766904  0.53707878     0.11900
H1492       H  0.08099903  0.85222395  0.55590821     0.13100
H1493       H  0.53263398  0.82874228  0.57088187     0.12100
H1494       H  0.96859540  0.70216719  0.53984662     0.09200
H1495       H  0.42175277  0.68101278  0.55521555     0.12500
H1496       H  0.47516628  0.77837214  0.57795980     0.14400
C1497       C  0.27363231  0.72435760  0.56848617    -0.01100
C1498       C  0.24194714  0.72373860  0.57224353    -0.09200
C1499       C  0.22496141  0.73646119  0.56400577    -0.18000
C1500       C  0.23969839  0.75095294  0.55179440     0.04400
C1501       C  0.27263714  0.75278221  0.54827717     0.18600
C1502       C  0.28876495  0.73886611  0.55647746    -0.19400
C1503       C  0.28953639  0.76884834  0.53665522    -0.20700
C1504       C  0.27476741  0.78385294  0.52851985    -0.19200
C1505       C  0.24202292  0.78184536  0.53157185     0.20000
C1506       C  0.22342397  0.76437550  0.54305311     0.02100
C1507       C  0.18931447  0.76098239  0.54521897    -0.14000
C1508       C  0.17478922  0.77508657  0.53648320    -0.11700
C1509       C  0.19386531  0.79350814  0.52544121     0.01600
C1510       C  0.22778256  0.79729107  0.52318598    -0.23900
H1511       H  0.22985034  0.71269972  0.58149844     0.09600
H1512       H  0.20069653  0.73518425  0.56754819     0.13200
H1513       H  0.31360159  0.73990894  0.55358883     0.11900
H1514       H  0.31471061  0.77042150  0.53394601     0.13100
H1515       H  0.28882075  0.79669975  0.51969308     0.12100
H1516       H  0.17294719  0.74701128  0.55345335     0.09200
H1517       H  0.14841436  0.77162691  0.53839994     0.12500
H1518       H  0.24352050  0.81280099  0.51500544     0.14400
C1519       C  0.20432198  0.90499107  0.49571388    -0.01100
C1520       C  0.24150252  0.92627431  0.49750602    -0.09200
C1521       C  0.26008771  0.96329232  0.49419140    -0.18000
C1522       C  0.24199670  0.98051805  0.48892720     0.04400
C1523       C  0.20485413  0.95809993  0.48605541     0.18600
C1524       C  0.18640594  0.92069263  0.48944643    -0.19400
C1525       C  0.18613273  0.97350813  0.48023681    -0.20700
C1526       C  0.20592631  0.50779663  0.47639851    -0.19200
C1527       C  0.24136422  0.53160612  0.48012831     0.20000
C1528       C  0.26068039  0.51838456  0.48725410     0.02100
C1529       C  0.29603892  0.54411158  0.49114756    -0.14000
C1530       C  0.31241709  0.58069016  0.48718441    -0.11700
C1531       C  0.29402149  0.59274497  0.47936524     0.01600
C1532       C  0.25797689  0.56841308  0.47638527    -0.23900
H1533       H  0.25586851  0.91468760  0.50231014     0.09600
H1534       H  0.28847611  0.97795492  0.49614090     0.13200
H1535       H  0.15761025  0.90451246  0.48809094     0.11900
H1536       H  0.15792009  0.95673974  0.47794858     0.13100
H1537       H  0.19107980  0.51774925  0.47096145     0.12100
H1538       H  0.31195079  0.53656647  0.49699875     0.09200
H1539       H  0.34021411  0.59909555  0.48963047     0.12500
H1540       H  0.24347843  0.57780386  0.47045628     0.14400
C1541       C  0.08926672  0.80044887  0.49661464    -0.01100
C1542       C  0.06698300  0.81532730  0.49911410    -0.09200
C1543       C  0.03072559  0.79697317  0.49560162    -0.18000
C1544       C  0.01521769  0.76268714  0.48942901     0.04400
C1545       C  0.03840358  0.74861666  0.48625762     0.18600
C1546       C  0.07505335  0.76758992  0.48979716    -0.19400
C1547       C  0.02458232  0.71511901  0.47991387    -0.20700
C1548       C  0.98840912  0.69534878  0.47660597    -0.19200
C1549       C  0.46672495  0.71004108  0.48024134     0.20000
C1550       C  0.47940964  0.74343200  0.48698047     0.02100
C1551       C  0.45371901  0.75365051  0.49068887    -0.14000
C1552       C  0.41758714  0.73295971  0.48700580    -0.11700
C1553       C  0.40593680  0.70148367  0.47960652     0.01600
C1554       C  0.43039305  0.68947700  0.47670800    -0.23900
H1555       H  0.07732301  0.84053620  0.50446418     0.09600
H1556       H  0.01532094  0.80993436  0.49810460     0.13200
H1557       H  0.09192303  0.75560889  0.48800215     0.11900
H1558       H  0.04192064  0.70411229  0.47746441     0.13100
H1559       H  0.97879878  0.66972957  0.47157138     0.12100
H1560       H  0.46092839  0.77791965  0.49619066     0.09200
H1561       H  0.39920031  0.74281293  0.48926623     0.12500
H1562       H  0.42144772  0.66507039  0.47096407     0.14400
C1563       C  0.29605177  0.70355392  0.47982725    -0.01100
C1564       C  0.26214670  0.68208321  0.48543813    -0.09200
C1565       C  0.24074247  0.69741577  0.48894497    -0.18000
C1566       C  0.25257025  0.73487964  0.48678148     0.04400
C1567       C  0.28757624  0.75659992  0.48150530     0.18600
C1568       C  0.30888532  0.74096222  0.47825394    -0.19400
C1569       C  0.30080063  0.79367889  0.47906873    -0.20700
C1570       C  0.28012204  0.80990179  0.48174199    -0.19200
C1571       C  0.24559532  0.78957062  0.48696267     0.20000
C1572       C  0.23116029  0.75169384  0.48955113     0.02100
C1573       C  0.19623591  0.73268329  0.49496368    -0.14000
C1574       C  0.17768289  0.75101274  0.49841893    -0.11700
C1575       C  0.19285126  0.78865531  0.49639732     0.01600
C1576       C  0.22612740  0.80740176  0.49013823    -0.23900
H1577       H  0.25131357  0.65294570  0.48641968     0.09600
H1578       H  0.21463317  0.67909170  0.49294249     0.13200
H1579       H  0.33482020  0.75753404  0.47367447     0.11900
H1580       H  0.32740371  0.81031617  0.47500203     0.13100
H1581       H  0.29140051  0.83874865  0.47980477     0.12100
H1582       H  0.18318589  0.70394864  0.49710378     0.09200
H1583       H  0.15214983  0.73611096  0.50338897     0.12500
H1584       H  0.23829806  0.83662747  0.48879238     0.14400
C1585       C  0.43184012  0.96836925  0.86131813    -0.01100
C1586       C  0.40291355  0.97356259  0.85826431    -0.09200
C1587       C  0.37315200  0.96087347  0.86638612    -0.18000
C1588       C  0.37175975  0.94329767  0.87807454     0.04400
C1589       C  0.40237609  0.94086067  0.88163092     0.18600
C1590       C  0.43173294  0.95324397  0.87327292    -0.19400
C1591       C  0.40349017  0.92601154  0.89349530    -0.20700
C1592       C  0.37447929  0.91304412  0.90189485    -0.19200
C1593       C  0.34331977  0.91366931  0.89845269     0.20000
C1594       C  0.34133416  0.92837432  0.88641017     0.02100
C1595       C  0.30858125  0.92644300  0.88305515    -0.14000
C1596       C  0.27911217  0.91060447  0.89131063    -0.11700
C1597       C  0.28148219  0.89685864  0.90323736     0.01600
C1598       C  0.31375158  0.89885539  0.90684917    -0.23900
H1599       H  0.40338229  0.98791861  0.84962875     0.09600
H1600       H  0.35199090  0.96589682  0.86336514     0.13200
H1601       H  0.45463585  0.95101222  0.87625224     0.11900
H1602       H  0.42699836  0.92442931  0.89629835     0.13100
H1603       H  0.37611964  0.90173019  0.91102275     0.12100
H1604       H  0.30452264  0.93594048  0.87396884     0.09200
H1605       H  0.25425907  0.90916132  0.88835213     0.12500
H1606       H  0.31540431  0.88764810  0.91600809     0.14400
C1607       C  0.04145640  0.97327304  0.86070840    -0.01100
C1608       C  0.07532073  0.97783710  0.85759984    -0.09200
C1609       C  0.09200644  0.96438726  0.86564814    -0.18000
C1610       C  0.07569235  0.94682758  0.87732889     0.04400
C1611       C  0.04293320  0.94512178  0.88091836     0.18600
C1612       C  0.02627957  0.95806007  0.87263307    -0.19400
C1613       C  0.02664351  0.93019932  0.89272814    -0.20700
C1614       C  0.04201414  0.91633067  0.90104177    -0.19200
C1615       C  0.07343807  0.91612736  0.89757141     0.20000
C1616       C  0.09060990  0.93102053  0.88560683     0.02100
C1617       C  0.12122457  0.92833546  0.88229661    -0.14000
C1618       C  0.13401218  0.91138021  0.89050923    -0.11700
C1619       C  0.11723192  0.89735753  0.90234076     0.01600
C1620       C  0.08729300  0.90025043  0.90589400    -0.19700
H1621       H  0.09328128  0.50267449  0.85161878     0.09600
H1622       H  0.11781716  0.96858888  0.86256373     0.13200
H1623       H  0.48887539  0.93065115  0.87015975     0.11900
H1624       H  0.48534179  0.89649256  0.88914703     0.13100
H1625       H  0.02876828  0.90491485  0.91012381     0.12100
H1626       H  0.13524278  0.93814382  0.87329595     0.09200
H1627       H  0.15726025  0.90934557  0.88761109     0.12500
H1628       H  0.07396832  0.88892841  0.91498173     0.14400
C1629       C  0.03590879  0.57389046  0.85915197    -0.01100
C1630       C  0.01579308  0.57412286  0.86971867    -0.09200
C1631       C  0.03015948  0.60281079  0.87842182    -0.18000
C1632       C  0.06515269  0.63260854  0.87667383     0.04400
C1633       C  0.08440285  0.63357078  0.86540458     0.18600
C1634       C  0.07023289  0.60373561  0.85702471    -0.19400
C1635       C  0.11769426  0.66418364  0.86263921    -0.20700
C1636       C  0.13230163  0.69392111  0.87089520    -0.19200
C1637       C  0.11478730  0.69286964  0.88239741     0.20000
C1638       C  0.08151792  0.66165595  0.88564195     0.02100
C1639       C  0.06649480  0.66042077  0.89786524    -0.14000
C1640       C  0.08295351  0.68984594  0.90625007    -0.11700
C1641       C  0.11436510  0.72149088  0.90262050     0.01600
C1642       C  0.13039772  0.72275257  0.89074582    -0.23900
H1643       H  0.48863995  0.55034723  0.87117886     0.09600
H1644       H  0.01302375  0.60123807  0.88629289     0.13200
H1645       H  0.08625844  0.60351969  0.84900558     0.11900
H1646       H  0.13223503  0.66534898  0.85394886     0.13100
H1647       H  0.15781345  0.71755724  0.86840695     0.12100
H1648       H  0.04243298  0.63683738  0.90130173     0.09200
H1649       H  0.07050264  0.68821866  0.91548029     0.12500
H1650       H  0.15529469  0.74693197  0.88806589     0.14400
C1651       C  0.38758054  0.94373453  0.74162473    -0.01100
C1652       C  0.36078112  0.95291921  0.73997867    -0.09200
C1653       C  0.33118927  0.93883495  0.74819464    -0.18000
C1654       C  0.32732296  0.91444609  0.75815967     0.04400
C1655       C  0.35355921  0.90343166  0.75923658     0.18600
C1656       C  0.38392286  0.91895519  0.75122191    -0.19400
C1657       C  0.34910894  0.87685831  0.76821528    -0.20700
C1658       C  0.31875498  0.86061995  0.77606197    -0.19200
C1659       C  0.29320276  0.87200202  0.77555576     0.20000
C1660       C  0.29793725  0.90008330  0.76691192     0.02100
C1661       C  0.27372428  0.91351411  0.76766319    -0.14000
C1662       C  0.24497602  0.89840485  0.77618861    -0.11700
C1663       C  0.23882163  0.86895795  0.78390915     0.01600
C1664       C  0.26315987  0.85600697  0.78375102    -0.23900
H1665       H  0.36319731  0.97179188  0.73249899     0.09600
H1666       H  0.31138331  0.94685968  0.74632608     0.13200
H1667       H  0.40449257  0.91133792  0.75228875     0.11900
H1668       H  0.36887895  0.86809659  0.76900077     0.13100
H1669       H  0.31561336  0.83959413  0.78273995     0.12100
H1670       H  0.27712324  0.93660612  0.76216085     0.09200
H1671       H  0.22815448  0.91062761  0.77707294     0.12500
H1672       H  0.25889548  0.83391849  0.79011486     0.14400
C1673       C  0.13359819  0.86872515  0.78359660    -0.01100
C1674       C  0.09990944  0.86456258  0.78663873    -0.09200
C1675       C  0.08453432  0.87997080  0.77891462    -0.18000
C1676       C  0.10179050  0.89876115  0.76752486     0.04400
C1677       C  0.13409062  0.89966486  0.76381142     0.18600
C1678       C  0.14967282  0.88494864  0.77186560    -0.19400
C1679       C  0.15057898  0.91509927  0.75206129    -0.20700
C1680       C  0.13533969  0.92942223  0.74382982    -0.19200
C1681       C  0.10408132  0.92990253  0.74739790     0.20000
C1682       C  0.08755229  0.91564359  0.75949360     0.02100
C1683       C  0.05781497  0.91941363  0.76313633    -0.14000
C1684       C  0.04402992  0.93511017  0.75485210    -0.11700
C1685       C  0.05907814  0.94711407  0.74265620     0.01600
C1686       C  0.08927414  0.94473365  0.73898959    -0.23900
H1687       H  0.08548228  0.84965307  0.79512167     0.09600
H1688       H  0.05872336  0.87592135  0.78193767     0.13200
H1689       H  0.17437401  0.88622879  0.76889636     0.11900
H1690       H  0.17513272  0.91562456  0.74914172     0.13100
H1691       H  0.14832678  0.94060795  0.73469419     0.12100
H1692       H  0.04506300  0.91112714  0.77241201     0.09200
H1693       H  0.02102153  0.93733230  0.75794543     0.12500
H1694       H  0.10159072  0.95500577  0.72968454     0.14400
C1695       C  0.13382256  0.76337860  0.78574494    -0.01100
C1696       C  0.09887739  0.73506586  0.78815684    -0.09200
C1697       C  0.08377628  0.70374052  0.78061136    -0.18000
C1698       C  0.10274446  0.70064579  0.76999077     0.04400
C1699       C  0.13738228  0.73043313  0.76717542     0.18600
C1700       C  0.15291788  0.76082832  0.77525291    -0.19400
C1701       C  0.15593734  0.73015961  0.75613470    -0.20700
C1702       C  0.14032140  0.70118800  0.74760026    -0.19200
C1703       C  0.10658192  0.67110004  0.75024433     0.20000
C1704       C  0.08797619  0.66975719  0.76174887     0.02100
C1705       C  0.05553729  0.63746280  0.76454665    -0.14000
C1706       C  0.04132007  0.60844337  0.75595055    -0.11700
C1707       C  0.05859217  0.61093137  0.74425679     0.01600
C1708       C  0.09134888  0.64217862  0.74148424    -0.23900
H1709       H  0.08277760  0.73743779  0.79570421     0.09600
H1710       H  0.05664060  0.68319774  0.78295337     0.13200
H1711       H  0.17981804  0.78294258  0.77322945     0.11900
H1712       H  0.18225422  0.75296812  0.75390226     0.13100
H1713       H  0.15487326  0.70216332  0.73893667     0.12100
H1714       H  0.04094591  0.63357561  0.77340016     0.09200
H1715       H  0.01634888  0.58408423  0.75838395     0.12500
H1716       H  0.10536521  0.64362507  0.73261781     0.14400
C1717       C  0.03613161  0.96207057  0.83170384    -0.01100
C1718       C  0.02490040  0.92630456  0.83572516    -0.09200
C1719       C  0.04339265  0.90838888  0.83189792    -0.18000
C1720       C  0.07373800  0.92563699  0.82374028     0.04400
C1721       C  0.08256587  0.96034490  0.81857819     0.18600
C1722       C  0.06371577  0.97819615  0.82257341    -0.19400
C1723       C  0.11106116  0.97759808  0.80984987    -0.20700
C1724       C  0.13176637  0.96181936  0.80647723    -0.19200
C1725       C  0.12488248  0.92860079  0.81188096     0.20000
C1726       C  0.09572806  0.90988821  0.82057236     0.02100
C1727       C  0.09023023  0.87648132  0.82579256    -0.14000
C1728       C  0.11105342  0.86105372  0.82177762    -0.11700
C1729       C  0.13820630  0.87856494  0.81260066     0.01600
C1730       C  0.14632416  0.91338111  0.80829708    -0.23900
H1731       H  0.00294044  0.91297333  0.84252846     0.09600
H1732       H  0.03380896  0.88140715  0.83571771     0.13200
H1733       H  0.08072038  0.51022137  0.82244303     0.11900
H1734       H  0.11765434  0.00371612  0.80570496     0.13100
H1735       H  0.15359257  0.97590898  0.79967141     0.12100
H1736       H  0.06946002  0.86119325  0.83275913     0.09200
H1737       H  0.10445535  0.83430313  0.82527383     0.12500
H1738       H  0.16768335  0.92732269  0.80129732     0.14400
C1739       C  0.24424488  0.87354746  0.81237833    -0.01100
C1740       C  0.25507157  0.85348100  0.81997133    -0.09200
C1741       C  0.29096981  0.86868724  0.82395805    -0.18000
C1742       C  0.31738939  0.90457723  0.82032121     0.04400
C1743       C  0.30589877  0.92491734  0.81282482     0.18600
C1744       C  0.26973231  0.90957929  0.80915278    -0.19400
C1745       C  0.33067390  0.96031532  0.80880655    -0.20700
C1746       C  0.36660211  0.97650756  0.81232576    -0.19200
C1747       C  0.37888844  0.95774550  0.81993351     0.20000
C1748       C  0.35460973  0.92125340  0.82388705     0.02100
C1749       C  0.36864502  0.90345992  0.83141347    -0.14000
C1750       C  0.40440479  0.92188463  0.83552321    -0.11700
C1751       C  0.42756594  0.95852436  0.83225708     0.01600
C1752       C  0.41503292  0.97582272  0.82401384    -0.23900
H1753       H  0.23606155  0.82537071  0.82234329     0.09600
H1754       H  0.29741020  0.85146529  0.82965101     0.13200
H1755       H  0.26158412  0.92519105  0.80319200     0.11900
H1756       H  0.32212435  0.97576841  0.80295331     0.13100
H1757       H  0.38536274  0.50652717  0.80916855     0.12100
H1758       H  0.35235573  0.87567660  0.83460054     0.09200
H1759       H  0.41362735  0.90795611  0.84185555     0.12500
H1760       H  0.43463337  0.50616027  0.82048754     0.14400
C1761       C  0.13631731  0.76440572  0.81450449    -0.01100
C1762       C  0.15237278  0.74268987  0.81311219    -0.09200
C1763       C  0.13379329  0.70567094  0.81634500    -0.18000
C1764       C  0.09813967  0.68892288  0.82106271     0.04400
C1765       C  0.08313449  0.71179642  0.82357030     0.18600
C1766       C  0.10233386  0.74925218  0.82033723    -0.19400
C1767       C  0.04849758  0.69678133  0.82879348    -0.20700
C1768       C  0.02851393  0.65967819  0.83161695    -0.19200
C1769       C  0.04217128  0.63632061  0.82896343     0.20000
C1770       C  0.07686537  0.65040942  0.82337488     0.02100
C1771       C  0.08855719  0.62521901  0.82030535    -0.14000
C1772       C  0.06800913  0.58825992  0.82367173    -0.11700
C1773       C  0.03534101  0.57527133  0.83021615     0.01600
C1774       C  0.02185034  0.59913755  0.83229703    -0.23900
H1775       H  0.17857964  0.75390938  0.80860512     0.09600
H1776       H  0.14768455  0.69062817  0.81471850     0.13200
H1777       H  0.08959987  0.76580660  0.82132342     0.11900
H1778       H  0.03679652  0.71389646  0.83075615     0.13100
H1779       H  0.00204813  0.64912181  0.83585478     0.12100
H1780       H  0.11387363  0.63345635  0.81558206     0.09200
H1781       H  0.07902321  0.57040390  0.82205176     0.12500
H1782       H  0.99654589  0.58919142  0.83738156     0.14400
C1783       C  0.43741143  0.88790049  0.23623902    -0.01100
C1784       C  0.40440504  0.87753919  0.23039806    -0.09200
C1785       C  0.38842546  0.84720637  0.22237132    -0.18000
C1786       C  0.40503514  0.82605055  0.21992388     0.04400
C1787       C  0.43793147  0.83594915  0.22622876     0.18600
C1788       C  0.45380493  0.86667424  0.23422229    -0.19400
C1789       C  0.45501633  0.81536447  0.22442503    -0.20700
C1790       C  0.44038745  0.78532987  0.21632282    -0.19200
C1791       C  0.40857534  0.77545756  0.20970833     0.20000
C1792       C  0.39039705  0.79567651  0.21138048     0.02100
C1793       C  0.35870062  0.78494760  0.20424925    -0.14000
C1794       C  0.34593512  0.75568292  0.19575340    -0.11700
C1795       C  0.36401203  0.73611853  0.19423796     0.01600
C1796       C  0.39493845  0.74560977  0.20131895    -0.23900
H1797       H  0.39101205  0.89328355  0.23186809     0.09600
H1798       H  0.36314472  0.84116536  0.21821864     0.13200
H1799       H  0.47912006  0.87414088  0.23884126     0.11900
H1800       H  0.97227241  0.81214130  0.23319640     0.13100
H1801       H  0.45431008  0.77000139  0.21508869     0.12100
H1802       H  0.34337041  0.79877291  0.20489232     0.09200
H1803       H  0.32163181  0.74803433  0.19039873     0.12500
H1804       H  0.40860481  0.72998902  0.20012677     0.14400
C1805       C  0.36257794  0.62910719  0.19296007    -0.01100
C1806       C  0.33981981  0.59797903  0.19997818    -0.09200
C1807       C  0.35398849  0.58250065  0.20819805    -0.18000
C1808       C  0.39158350  0.59848409  0.20979690     0.04400
C1809       C  0.41442656  0.63042296  0.20261292     0.18600
C1810       C  0.39973116  0.64515010  0.19415902    -0.19400
C1811       C  0.45169731  0.64787040  0.20410497    -0.20700
C1812       C  0.46692254  0.63448698  0.21272085    -0.19200
C1813       C  0.44524370  0.60303910  0.21988771     0.20000
C1814       C  0.40727650  0.58433343  0.21841658     0.02100
C1815       C  0.38665918  0.55223240  0.22563560    -0.14000
C1816       C  0.40300773  0.53931916  0.23395452    -0.11700
C1817       C  0.44036776  0.55788880  0.23543728     0.01600
C1818       C  0.46135067  0.58992395  0.22844107    -0.23900
H1819       H  0.31093856  0.58571895  0.19910933     0.09600
H1820       H  0.33474318  0.55855149  0.21333347     0.13200
H1821       H  0.41706827  0.66970055  0.18875960     0.11900
H1822       H  0.46916234  0.67226921  0.19867543     0.13100
H1823       H  0.49587438  0.64876477  0.21375376     0.12100
H1824       H  0.35785803  0.53610776  0.22498621     0.09200
H1825       H  0.38615343  0.51440075  0.23921379     0.12500
H1826       H  0.49033351  0.60423357  0.22941938     0.14400
C1827       C  0.25969601  0.63183480  0.19331950    -0.01100
C1828       C  0.23571706  0.59438189  0.19270917    -0.09200
C1829       C  0.20579370  0.57819014  0.20083011    -0.18000
C1830       C  0.19897088  0.59930187  0.20978860     0.04400
C1831       C  0.22315512  0.63755746  0.21006726     0.18600
C1832       C  0.25343569  0.65328676  0.20200237    -0.19400
C1833       C  0.21701376  0.65992034  0.21838833    -0.20700
C1834       C  0.18727820  0.64515729  0.22649184    -0.19200
C1835       C  0.16336977  0.60757560  0.22666295     0.20000
C1836       C  0.16906380  0.58398276  0.21843893     0.02100
C1837       C  0.14479884  0.54609899  0.21935883    -0.14000
C1838       C  0.11594669  0.53239087  0.22795728    -0.11700
C1839       C  0.11000609  0.55586372  0.23580529     0.01600
C1840       C  0.13384487  0.59344794  0.23509277    -0.23900
H1841       H  0.24048315  0.57753380  0.18603301     0.09600
H1842       H  0.18846429  0.54920989  0.19980715     0.13200
H1843       H  0.27210703  0.68238003  0.20237769     0.11900
H1844       H  0.23525323  0.68909953  0.21858124     0.13100
H1845       H  0.18314282  0.66324661  0.23276548     0.12100
H1846       H  0.14754406  0.52631052  0.21366697     0.09200
H1847       H  0.09787378  0.50320483  0.22832360     0.12500
H1848       H  0.12966454  0.61177408  0.24123232     0.14400
C1849       C  0.06404071  0.95814007  0.29563363    -0.01100
C1850       C  0.06939941  0.92862107  0.29324083    -0.09200
C1851       C  0.07907886  0.91313216  0.30318414    -0.18000
C1852       C  0.08345029  0.92671863  0.31587943     0.04400
C1853       C  0.08065896  0.95836571  0.31801613     0.18600
C1854       C  0.07093800  0.97358754  0.30796780    -0.19400
C1855       C  0.08685302  0.97422805  0.33022027    -0.20700
C1856       C  0.09563360  0.95908934  0.34043934    -0.19200
C1857       C  0.09729726  0.92710477  0.33877892     0.20000
C1858       C  0.09050030  0.91010302  0.32651272     0.02100
C1859       C  0.09028939  0.87675260  0.32545875    -0.14000
C1860       C  0.09871624  0.86211386  0.33590001    -0.11700
C1861       C  0.10777585  0.88009481  0.34776337     0.01600
C1862       C  0.10607578  0.91213693  0.34925924    -0.23900
H1863       H  0.06482496  0.91659709  0.28377273     0.09600
H1864       H  0.08270521  0.89042869  0.30064409     0.13200
H1865       H  0.06286144  0.49338257  0.30881950     0.11900
H1866       H  0.08355892  0.49770667  0.33045768     0.13100
H1867       H  0.10065830  0.97219648  0.34973754     0.12100
H1868       H  0.08364661  0.86122417  0.31670165     0.09200
H1869       H  0.09908663  0.83686960  0.33453690     0.12500
H1870       H  0.11283264  0.92611592  0.35841798     0.14400
C1871       C  0.12338144  0.71997451  0.35110358    -0.01100
C1872       C  0.09135227  0.68724497  0.35300746    -0.09200
C1873       C  0.07585179  0.66270094  0.34287240    -0.18000
C1874       C  0.09203397  0.67064267  0.33052570     0.04400
C1875       C  0.12642399  0.70200945  0.32912473     0.18600
C1876       C  0.14173080  0.72614572  0.33937559    -0.19400
C1877       C  0.14465003  0.71002382  0.31735117    -0.20700
C1878       C  0.12898575  0.68783528  0.30676514    -0.19200
C1879       C  0.09436502  0.65773408  0.30762944     0.20000
C1880       C  0.07521703  0.64899589  0.31949524     0.02100
C1881       C  0.03967792  0.61959417  0.31972066    -0.14000
C1882       C  0.02466988  0.59835826  0.30886270    -0.11700
C1883       C  0.04440590  0.60562187  0.29741006     0.01600
C1884       C  0.07888786  0.63600854  0.29673328    -0.23900
H1885       H  0.07709227  0.68168837  0.36206918     0.09600
H1886       H  0.05081582  0.63826214  0.34490001     0.13200
H1887       H  0.16714943  0.75105417  0.33797013     0.11900
H1888       H  0.17107828  0.73380552  0.31629484     0.13100
H1889       H  0.14377502  0.69466028  0.29778286     0.12100
H1890       H  0.02279713  0.61226764  0.32813894     0.09200
H1891       H  0.49203138  0.58021804  0.30526693     0.12500
H1892       H  0.09429525  0.64179598  0.28790895     0.14400
C1893       C  0.39496115  0.94272374  0.29587718    -0.01100
C1894       C  0.40433310  0.93427435  0.30772602    -0.09200
C1895       C  0.38125986  0.92456333  0.31819191    -0.18000
C1896       C  0.34779890  0.92305605  0.31717870     0.04400
C1897       C  0.33747961  0.92963554  0.30494511     0.18600
C1898       C  0.36106174  0.93934295  0.29442193    -0.19400
C1899       C  0.30399650  0.92715812  0.30336662    -0.20700
C1900       C  0.28042595  0.91810787  0.31367213    -0.19200
C1901       C  0.29008899  0.91194583  0.32582758     0.20000
C1902       C  0.32413892  0.91496299  0.32784251     0.02100
C1903       C  0.33298173  0.90978717  0.34045397    -0.14000
C1904       C  0.30809019  0.89974947  0.35045846    -0.11700
C1905       C  0.27388594  0.89474273  0.34819515     0.01600
C1906       C  0.26548467  0.90198038  0.33595052    -0.23900
H1907       H  0.43022696  0.93611202  0.30904506     0.09600
H1908       H  0.39058999  0.91864641  0.32694632     0.13200
H1909       H  0.35363529  0.94577611  0.28527005     0.11900
H1910       H  0.29591043  0.93207446  0.29408950     0.13100
H1911       H  0.25446337  0.91593053  0.31212920     0.12100
H1912       H  0.35871714  0.91288081  0.34289731     0.09200
H1913       H  0.31515258  0.89448690  0.35985846     0.12500
H1914       H  0.23917764  0.89878608  0.33417550     0.14400
C1915       C  0.29793875  0.59752508  0.45057036    -0.01100
C1916       C  0.27291277  0.59515184  0.44158330    -0.09200
C1917       C  0.25836954  0.56672733  0.43277249    -0.18000
C1918       C  0.26894736  0.53990192  0.43259240     0.04400
C1919       C  0.29409888  0.54225453  0.44192852     0.18600
C1920       C  0.30830365  0.57095395  0.45082449    -0.19400
C1921       C  0.30513956  0.51617643  0.44223665    -0.20700
C1922       C  0.29177550  0.48772336  0.43344133    -0.19200
C1923       C  0.26712988  0.48473920  0.42410514     0.20000
C1924       C  0.25544681  0.51086354  0.42350765     0.02100
C1925       C  0.22474480  0.00336433  0.41590613    -0.14000
C1926       C  0.21136875  0.97363691  0.40762129    -0.11700
C1927       C  0.22534127  0.94993909  0.40761185     0.01600
C1928       C  0.25346014  0.95667196  0.41596995    -0.23900
H1929       H  0.26463239  0.61557232  0.44137034     0.09600
H1930       H  0.23910718  0.56674871  0.42620594     0.13200
H1931       H  0.32799884  0.57313718  0.45777289     0.11900
H1932       H  0.32424266  0.51779072  0.44933440     0.13100
H1933       H  0.30074275  0.46787189  0.43395571     0.12100
H1934       H  0.21261006  0.02030766  0.41524831     0.09200
H1935       H  0.18988506  0.96920158  0.40115743     0.12500
H1936       H  0.26435554  0.93835805  0.41604981     0.14400
C1937       C  0.40321939  0.70356546  0.45086877    -0.01100
C1938       C  0.42892956  0.74042084  0.45218229    -0.09200
C1939       C  0.45849506  0.75678551  0.44387931    -0.18000
C1940       C  0.46311469  0.73658761  0.43392532     0.04400
C1941       C  0.43681749  0.69908660  0.43272999     0.18600
C1942       C  0.40715383  0.68314886  0.44108334    -0.19400
C1943       C  0.94197653  0.67825143  0.42246878    -0.20700
C1944       C  0.97188564  0.69351368  0.41445133    -0.19200
C1945       C  0.99771654  0.73042523  0.41547285     0.20000
C1946       C  0.49280026  0.75205746  0.42514478     0.02100
C1947       C  0.51954956  0.78933730  0.42525574    -0.14000
C1948       C  0.04918709  0.80458870  0.41657179    -0.11700
C1949       C  0.05384566  0.78189616  0.40791304     0.01600
C1950       C  0.02790424  0.74489929  0.40736246    -0.23900
H1951       H  0.42587504  0.75674354  0.45957318     0.09600
H1952       H  0.47725545  0.78521310  0.44551611     0.13200
H1953       H  0.38711420  0.65458812  0.44006100     0.11900
H1954       H  0.92240356  0.64958855  0.42142151     0.13100
H1955       H  0.97482661  0.67629991  0.40738738     0.12100
H1956       H  0.51907597  0.80856969  0.43194526     0.09200
H1957       H  0.06891244  0.83332515  0.41711820     0.12500
H1958       H  0.03111606  0.72733284  0.40052105     0.14400
C1959       C  0.29970415  0.70382004  0.45128440    -0.01100
C1960       C  0.32260213  0.73228542  0.44320304    -0.09200
C1961       C  0.30898332  0.74821424  0.43493750    -0.18000
C1962       C  0.27166994  0.73556512  0.43440943     0.04400
C1963       C  0.24847305  0.70590407  0.44248739     0.18600
C1964       C  0.26270641  0.69058183  0.45093352    -0.19400
C1965       C  0.21125345  0.69138568  0.44192501    -0.20700
C1966       C  0.19644804  0.70550470  0.43341007    -0.19200
C1967       C  0.21857107  0.73499613  0.42546619     0.20000
C1968       C  0.25653383  0.75085443  0.42600354     0.02100
C1969       C  0.27771614  0.78150539  0.41816047    -0.14000
C1970       C  0.26184431  0.79536716  0.40997762    -0.11700
C1971       C  0.22442839  0.77915060  0.40924724     0.01600
C1972       C  0.20292947  0.74892244  0.41703149    -0.23900
H1973       H  0.35126594  0.74224079  0.44330367     0.09600
H1974       H  0.32832184  0.76984785  0.42893116     0.13200
H1975       H  0.24502798  0.66780817  0.45702659     0.11900
H1976       H  0.19344555  0.66868675  0.44801172     0.13100
H1977       H  0.16749843  0.69342993  0.43309585     0.12100
H1978       H  0.30662838  0.79574544  0.41822078     0.09200
H1979       H  0.27909458  0.81891359  0.40414152     0.12500
H1980       H  0.17393646  0.73649066  0.41667473     0.14400
Zn1981     Zn  0.63859167  0.28102573  0.38499200     1.49700
Zn1982     Zn  0.71397824  0.35708781  0.38388834     1.49400
Zn1983     Zn  0.66334106  0.33016222  0.36041683     1.49100
Zn1984     Zn  0.63882661  0.35794656  0.38359876     1.49500
O1985       O  0.66365996  0.33152119  0.37862979    -1.84000
O1986       O  0.67147377  0.27279121  0.39667293    -0.74600
O1987       O  0.74903411  0.37680840  0.36862403    -0.74400
O1988       O  0.64867542  0.28161830  0.35405376    -0.73900
O1989       O  0.72428768  0.32342370  0.39431611    -0.74600
O1990       O  0.62332855  0.24389538  0.37045378    -0.74200
O1991       O  0.71031079  0.36207042  0.35270598    -0.74800
O1992       O  0.62129706  0.37502869  0.36819666    -0.74200
O1993       O  0.72230298  0.39873699  0.39552299    -0.75000
O1994       O  0.63093432  0.34481570  0.35274876    -0.74300
O1995       O  0.67160085  0.40101735  0.39435749    -0.74800
O1996       O  0.59634804  0.32540529  0.39481857    -0.74700
O1997       O  0.59480921  0.27190532  0.39521209    -0.74500
C1998       C  0.70494608  0.29169466  0.39907561     0.77300
C1999       C  0.74224649  0.37728532  0.35675214     0.77800
C2000       C  0.63161833  0.24966860  0.35859806     0.76700
C2001       C  0.61850402  0.36486648  0.35653171     0.77100
C2002       C  0.70328245  0.41309918  0.39863520     0.78200
C2003       C  0.58211043  0.29234423  0.39853646     0.77300
Zn2004     Zn  0.99376884  0.49894681  0.28225215     1.49700
Zn2005     Zn  0.52077988  0.47238508  0.25708353     1.49400
Zn2006     Zn  0.94770985  0.47784414  0.25777118     1.49100
Zn2007     Zn  0.52393905  0.05564875  0.25745923     1.49500
O2008       O  0.99688072  0.50127687  0.26412278    -1.84000
O2009       O  0.52850789  0.48283515  0.28810435    -0.74600
O2010       O  0.98832204  0.43269173  0.24714865    -0.74400
O2011       O  0.90951102  0.45383752  0.27189389    -0.73900
O2012       O  0.53940532  0.45509577  0.27208813    -0.74600
O2013       O  0.94568554  0.46580039  0.28845908    -0.74200
O2014       O  0.94050234  0.43953827  0.24465886    -0.74800
O2015       O  0.99338732  0.06453955  0.24697029    -0.74200
O2016       O  0.56301755  0.01030063  0.24540465    -0.75000
O2017       O  0.94074229  0.01364980  0.24912321    -0.74300
O2018       O  0.56604643  0.06450088  0.24626998    -0.74800
O2019       O  0.54082542  0.09194211  0.27237093    -0.74700
O2020       O  0.51467863  0.05281621  0.28832562    -0.74500
C2021       C  0.54186553  0.46400279  0.28389478     0.77300
C2022       C  0.95825387  0.42354035  0.24188863     0.77800
C2023       C  0.91448481  0.45097453  0.28377040     0.76700
C2024       C  0.95976149  0.04589828  0.24476266     0.77100
C2025       C  0.57748517  0.04370743  0.24206814     0.78200
C2026       C  0.53205336  0.08512200  0.28416242     0.77300
C2027       C  0.67267004  0.33711906  0.81288333     0.45600
H2028       H  0.67398254  0.33831837  0.82351673    -0.03400
C2029       C  0.66990287  0.33475701  0.78789176     0.45700
H2030       H  0.66881456  0.33308104  0.77726959    -0.03400
C2031       C  0.65312588  0.35629725  0.80689349    -0.17100
C2032       C  0.71018008  0.35593527  0.80622011    -0.16900
C2033       C  0.65301916  0.29775863  0.80736116    -0.17200
C2034       C  0.65117067  0.35423839  0.79367502    -0.17200
C2035       C  0.70808064  0.35430055  0.79309163    -0.16800
C2036       C  0.65191027  0.29729505  0.79420286    -0.17100
C2037       C  0.00378753  0.50336789  0.85707083     0.45600
H2038       H  0.00541706  0.50461386  0.86769035    -0.03400
C2039       C  0.00207435  0.50150646  0.83206434     0.45700
H2040       H  0.00127373  0.50050380  0.82142369    -0.03400
C2041       C  0.51934301  0.03831150  0.85198885    -0.17100
C2042       C  0.52204870  0.48291849  0.85101066    -0.16900
C2043       C  0.96563429  0.48349349  0.85177681    -0.17200
C2044       C  0.51882805  0.03890342  0.83880786    -0.17200
C2045       C  0.52223615  0.48213519  0.83786960    -0.16800
C2046       C  0.96431514  0.48159143  0.83854603    -0.17100
C2047       C  0.66551507  0.33215518  0.49740135     0.45600
H2048       H  0.66566003  0.33222371  0.48675260    -0.03400
C2049       C  0.66518877  0.33210709  0.52239958     0.45700
H2050       H  0.66490040  0.33223478  0.53304320    -0.03400
C2051       C  0.68199211  0.31010057  0.50343351    -0.17100
C2052       C  0.68705655  0.37076112  0.50345882    -0.16900
C2053       C  0.62734588  0.31547862  0.50346906    -0.17200
C2054       C  0.68177125  0.31056406  0.51665848    -0.17200
C2055       C  0.68646809  0.37021383  0.51665956    -0.16800
C2056       C  0.62776596  0.31539390  0.51665742    -0.17100
C2057       C  0.83500265  0.16900811  0.45156581     0.45600
H2058       H  0.83486216  0.16971238  0.44090491    -0.03400
C2059       C  0.83502021  0.16740697  0.47661036     0.45700
H2060       H  0.83499936  0.16670853  0.48725402    -0.03400
C2061       C  0.81741424  0.18888466  0.45775955    -0.17100
C2062       C  0.81502415  0.13066240  0.45710143    -0.16900
C2063       C  0.87254159  0.18631967  0.45724868    -0.17200
C2064       C  0.81721827  0.18865030  0.47091023    -0.17200
C2065       C  0.81457383  0.12907037  0.47025016    -0.16800
C2066       C  0.87322821  0.18562158  0.47042311    -0.17100
Zn2067     Zn  0.80801580  0.11639670  0.60351605     1.49700
Zn2068     Zn  0.80497494  0.19075783  0.60352631     1.49400
Zn2069     Zn  0.88083521  0.19336750  0.60356909     1.49100
Zn2070     Zn  0.83102666  0.16628141  0.57890365     1.49500
O2071       O  0.83128095  0.16673617  0.59745917    -1.84000
O2072       O  0.76615454  0.10603125  0.61483679    -0.74600
O2073       O  0.83614340  0.23433360  0.61440842    -0.74400
O2074       O  0.89178833  0.16143909  0.61490647    -0.73900
O2075       O  0.76465707  0.15779490  0.61508027    -0.74600
O2076       O  0.84107506  0.10826618  0.61478126    -0.74200
O2077       O  0.88852633  0.23564726  0.61455769    -0.74800
O2078       O  0.88089400  0.18963965  0.57190924    -0.74200
O2079       O  0.78499264  0.20632268  0.58899374    -0.75000
O2080       O  0.91634026  0.21205532  0.58889602    -0.74300
O2081       O  0.80730298  0.19279442  0.57192222    -0.74800
O2082       O  0.80433045  0.11570566  0.57188525    -0.74700
O2083       O  0.79105817  0.07997736  0.58899040    -0.74500
C2084       C  0.75284346  0.12523260  0.61890187     0.77300
C2085       C  0.86841653  0.24819229  0.61823354     0.77800
C2086       C  0.87304409  0.12855077  0.61869485     0.76700
C2087       C  0.91197499  0.20726345  0.57683683     0.77100
C2088       C  0.78921914  0.20610902  0.57690887     0.78200
C2089       C  0.79075863  0.08420815  0.57691091     0.77300
Zn2090     Zn  0.52449002  0.47429260  0.70753439     1.49700
Zn2091     Zn  0.95464180  0.47872852  0.70752150     1.49400
Zn2092     Zn  0.50030465  0.00118929  0.73242891     1.49100
Zn2093     Zn  0.53007417  0.05388639  0.70806875     1.49500
O2094       O  0.50303773  0.00315052  0.71390348    -1.84000
O2095       O  0.99458368  0.43420206  0.69568410    -0.74600
O2096       O  0.91772158  0.46155634  0.72171172    -0.74400
O2097       O  0.52256041  0.47315307  0.73935492    -0.73900
O2098       O  0.94387197  0.43632002  0.69628118    -0.74600
O2099       O  0.53978361  0.45386038  0.72234467    -0.74200
O2100       O  0.95102958  0.47088673  0.73901728    -0.74800
O2101       O  0.54751391  0.08836850  0.72312475    -0.74200
O2102       O  0.94784014  0.01613331  0.69620122    -0.75000
O2103       O  0.52251241  0.05099355  0.73974521    -0.74300
O2104       O  0.00052221  0.06728019  0.69585750    -0.74800
O2105       O  0.57251510  0.06180961  0.69770012    -0.74700
O2106       O  0.56957779  0.00787664  0.69727653    -0.74500
C2107       C  0.96244427  0.42265767  0.69201761     0.77300
C2108       C  0.92063088  0.45892340  0.73374354     0.77800
C2109       C  0.53712526  0.45605439  0.73446814     0.76700
C2110       C  0.54143422  0.08282504  0.73512106     0.77100
C2111       C  0.96816772  0.04833383  0.69205936     0.78200
C2112       C  0.58421264  0.04107061  0.69381438     0.77300
C2113       C  0.83180747  0.16618971  0.16482901     0.45600
H2114       H  0.83239361  0.16557270  0.15418775    -0.03400
C2115       C  0.83024799  0.16766486  0.18989373     0.45700
H2116       H  0.82956505  0.16833688  0.20054966    -0.03400
C2117       C  0.79341847  0.14901780  0.17066331    -0.17100
C2118       C  0.84888857  0.14542528  0.17143788    -0.16900
C2119       C  0.85188607  0.20518905  0.17060285    -0.17200
C2120       C  0.79317241  0.14967291  0.18381935    -0.17200
C2121       C  0.84787975  0.14668744  0.18460312    -0.16800
C2122       C  0.85067939  0.20538019  0.18375728    -0.17100
C2123       C  0.00289710  0.00330980  0.11944591     0.45600
H2124       H  0.00472592  0.00511907  0.10880018    -0.03400
C2125       C  0.50165922  0.00156836  0.14520567     0.45700
H2126       H  0.50042521  0.00073763  0.15584705    -0.03400
C2127       C  0.98466027  0.02282092  0.12537414    -0.17100
C2128       C  0.98298208  0.46570107  0.12588383    -0.16900
C2129       C  0.54117500  0.01898021  0.12640657    -0.17200
C2130       C  0.98242594  0.02148972  0.13851750    -0.17200
C2131       C  0.98182326  0.46423783  0.13902279    -0.16800
C2132       C  0.54027455  0.01809843  0.13956669    -0.17100
Zn2133     Zn  0.64362227  0.35871974  0.93748393     1.49700
Zn2134     Zn  0.71964655  0.36079299  0.93704434     1.49400
Zn2135     Zn  0.64636215  0.28486144  0.93768483     1.49100
Zn2136     Zn  0.66978778  0.33572486  0.91269388     1.49500
O2137       O  0.66982472  0.33500250  0.93124687    -1.84000
O2138       O  0.67538966  0.39919041  0.94931391    -0.74600
O2139       O  0.72863696  0.32994352  0.94931111    -0.74400
O2140       O  0.60630677  0.27509660  0.94997190    -0.73900
O2141       O  0.72941193  0.40434544  0.94752179    -0.74600
O2142       O  0.60163308  0.32496440  0.94842720    -0.74200
O2143       O  0.67976287  0.27537126  0.94829116    -0.74800
O2144       O  0.64406385  0.28483046  0.90586979    -0.74200
O2145       O  0.75525587  0.37620471  0.92244643    -0.75000
O2146       O  0.62634441  0.24911323  0.92317131    -0.74300
O2147       O  0.71942136  0.35999115  0.90553602    -0.74800
O2148       O  0.64673417  0.36352241  0.90587762    -0.74700
O2149       O  0.62623516  0.37839876  0.92315898    -0.74500
C2150       C  0.70836683  0.41424085  0.95240862     0.77300
C2151       C  0.71061321  0.29686408  0.95289028     0.77800
C2152       C  0.59145796  0.29357620  0.95316091     0.76700
C2153       C  0.62810015  0.25339879  0.91105238     0.77100
C2154       C  0.75063864  0.37453428  0.91036394     0.78200
C2155       C  0.63040544  0.37851734  0.91105178     0.77300
Zn2156     Zn  0.83694428  0.17224562  0.02822259     1.49700
Zn2157     Zn  0.88617927  0.19369832  0.05230194     1.49400
Zn2158     Zn  0.81063421  0.19391745  0.05325049     1.49100
Zn2159     Zn  0.81041178  0.11820437  0.05162385     1.49500
O2160       O  0.83607158  0.16953714  0.04657793    -1.84000
O2161       O  0.88569682  0.20301419  0.02127329    -0.74600
O2162       O  0.89572285  0.23603900  0.06372251    -0.74400
O2163       O  0.78979127  0.21069725  0.03902527    -0.73900
O2164       O  0.92244086  0.21226822  0.03751532    -0.74600
O2165       O  0.80690941  0.19201837  0.02181065    -0.74200
O2166       O  0.84456129  0.23752697  0.06328906    -0.74800
O2167       O  0.76847182  0.10749972  0.06309917    -0.74200
O2168       O  0.89476983  0.15919832  0.06272028    -0.75000
O2169       O  0.77090906  0.16094264  0.06553972    -0.74300
O2170       O  0.84285300  0.10705726  0.06218097    -0.74800
O2171       O  0.79317437  0.08428580  0.03619899    -0.74700
O2172       O  0.81865261  0.12390580  0.02025605    -0.74500
C2173       C  0.91706177  0.21525398  0.02569308     0.77300
C2174       C  0.87679763  0.25033725  0.06701988     0.77800
C2175       C  0.79049939  0.20688297  0.02692673     0.76700
C2176       C  0.75696880  0.12716843  0.06823093     0.77100
C2177       C  0.87524987  0.12590765  0.06590695     0.78200
C2178       C  0.80054531  0.09142997  0.02433205     0.77300
C2179       C  0.72439500  0.28405315  0.96341913    -0.01100
C2180       C  0.75001419  0.30935952  0.97184238    -0.09200
C2181       C  0.75921317  0.29786011  0.98299734    -0.18000
C2182       C  0.74333230  0.26041426  0.98599838     0.04400
C2183       C  0.71894091  0.23479234  0.97703358     0.18600
C2184       C  0.70927291  0.24676579  0.96600296    -0.19400
C2185       C  0.70440909  0.19737411  0.97911330    -0.20700
C2186       C  0.71445671  0.18483528  0.98973543    -0.19200
C2187       C  0.73806550  0.20937745  0.99878499     0.20000
C2188       C  0.75165141  0.24744521  0.99735844     0.02100
C2189       C  0.77324897  0.27077893  0.00730827    -0.14000
C2190       C  0.78352093  0.25706915  0.01764865    -0.11700
C2191       C  0.77263405  0.21999557  0.01827304     0.01600
C2192       C  0.74914249  0.19616251  0.00906200    -0.23900
H2193       H  0.76209663  0.33836265  0.97006688     0.09600
H2194       H  0.77906582  0.31887906  0.98901937     0.13200
H2195       H  0.68968062  0.22699502  0.95946855     0.11900
H2196       H  0.68585620  0.17770937  0.97231272     0.13100
H2197       H  0.70370915  0.15574161  0.99087891     0.12100
H2198       H  0.78296476  0.29971242  0.00726420     0.09200
H2199       H  0.80171980  0.27575308  0.02474938     0.12500
H2200       H  0.74058900  0.16734146  0.00965946     0.14400
C2201       C  0.72165681  0.44142424  0.96277391    -0.01100
C2202       C  0.69718065  0.44196216  0.97159084    -0.09200
C2203       C  0.70910980  0.46283999  0.98268002    -0.18000
C2204       C  0.74614851  0.48434439  0.98522101     0.04400
C2205       C  0.77094903  0.48580034  0.97580547     0.18600
C2206       C  0.75857203  0.46382406  0.96483365    -0.19400
C2207       C  0.80784410  0.50922122  0.97740582    -0.20700
C2208       C  0.81853434  0.04245429  0.98416365    -0.19200
C2209       C  0.79558674  0.04023067  0.99415814     0.20000
C2210       C  0.75854696  0.01360857  0.99386379     0.02100
C2211       C  0.73718348  0.01021817  0.00474364    -0.14000
C2212       C  0.75155897  0.03407535  0.01509872    -0.11700
C2213       C  0.78726447  0.06215113  0.01477773     0.01600
C2214       C  0.80933893  0.06471862  0.00441875    -0.23900
H2215       H  0.66851327  0.42499537  0.97019099     0.09600
H2216       H  0.68871007  0.46192831  0.98900730     0.13200
H2217       H  0.77768134  0.46390548  0.95795400     0.11900
H2218       H  0.82691306  0.51059812  0.97024783     0.13100
H2219       H  0.84689501  0.06249258  0.98440740     0.12100
H2220       H  0.70938588  0.98930517  0.00553476     0.09200
H2221       H  0.73426419  0.03167023  0.02309559     0.12500
H2222       H  0.83723674  0.08619859  0.00429470     0.14400
C2223       C  0.56316391  0.27950217  0.96309285    -0.01100
C2224       C  0.53789391  0.29120431  0.96337735    -0.09200
C2225       C  0.51377602  0.28192887  0.97356468    -0.18000
C2226       C  0.51464814  0.26107045  0.98401456     0.04400
C2227       C  0.53990641  0.24856859  0.98355730     0.18600
C2228       C  0.56354550  0.25746753  0.97306523    -0.19400
C2229       C  0.54190174  0.22793549  0.99368741    -0.20700
C2230       C  0.01496973  0.21337883  0.00196196    -0.19200
C2231       C  0.99306637  0.22886225  0.00392070     0.20000
C2232       C  0.99245858  0.25332887  0.99468050     0.02100
C2233       C  0.96944530  0.26776185  0.99696816    -0.14000
C2234       C  0.94682638  0.25701002  0.00761960    -0.11700
C2235       C  0.94686296  0.23229803  0.01648465     0.01600
C2236       C  0.97072552  0.21903769  0.01483925    -0.23900
H2237       H  0.53710248  0.30814386  0.95573905     0.09600
H2238       H  0.49528926  0.29212703  0.97303327     0.13200
H2239       H  0.58336476  0.24863465  0.97295213     0.11900
H2240       H  0.56116528  0.21840788  0.99341810     0.13100
H2241       H  0.01542832  0.19455644  0.00890397     0.12100
H2242       H  0.96734276  0.28648998  0.99054365     0.09200
H2243       H  0.92814397  0.26711352  0.00871533     0.12500
H2244       H  0.97012329  0.19921534  0.02157730     0.14400
C2245       C  0.96644235  0.43366536  0.11742826    -0.01100
C2246       C  0.94088892  0.43050580  0.10855305    -0.09200
C2247       C  0.92521820  0.40081464  0.10029889    -0.18000
C2248       C  0.93515434  0.37351980  0.10061740     0.04400
C2249       C  0.96211437  0.37763420  0.10942579     0.18600
C2250       C  0.97719837  0.40740279  0.11783442    -0.19400
C2251       C  0.97424923  0.35240499  0.10961237    -0.20700
C2252       C  0.96061814  0.32342958  0.10103632    -0.19200
C2253       C  0.93372686  0.31839853  0.09237662     0.20000
C2254       C  0.91989721  0.34279942  0.09230088     0.02100
C2255       C  0.89112749  0.33520980  0.08398494    -0.14000
C2256       C  0.87745927  0.30531752  0.07580740    -0.11700
C2257       C  0.89213626  0.28223646  0.07554361     0.01600
C2258       C  0.92025311  0.28885570  0.08385875    -0.23900
H2259       H  0.93290405  0.45111894  0.10805451     0.09600
H2260       H  0.90604030  0.40050719  0.09360438     0.13200
H2261       H  0.50619106  0.41911011  0.12172518     0.11900
H2262       H  0.50746755  0.36792428  0.11171074     0.13100
H2263       H  0.97096585  0.30466940  0.10124511     0.12100
H2264       H  0.87810178  0.35140631  0.08372141     0.09200
H2265       H  0.85532815  0.30036029  0.06959482     0.12500
H2266       H  0.93108349  0.27047954  0.08391825     0.14400
C2267       C  0.89041917  0.10909953  0.07435094    -0.01100
C2268       C  0.86777311  0.07691359  0.08100604    -0.09200
C2269       C  0.88184222  0.06195016  0.08953020    -0.18000
C2270       C  0.91927057  0.07871071  0.09158958     0.04400
C2271       C  0.94218976  0.11063154  0.08443476     0.18600
C2272       C  0.92762228  0.12571207  0.07606862    -0.19400
C2273       C  0.97951831  0.12727730  0.08562936    -0.20700
C2274       C  0.99471491  0.11271352  0.09374547    -0.19200
C2275       C  0.97288963  0.08181303  0.10111970     0.20000
C2276       C  0.93480708  0.06476003  0.10036631     0.02100
C2277       C  0.91398498  0.03471651  0.10852553    -0.14000
C2278       C  0.93037690  0.02169017  0.11681305    -0.11700
C2279       C  0.96771594  0.03801337  0.11713333     0.01600
C2280       C  0.98892510  0.06786301  0.10929841    -0.23900
H2281       H  0.83892476  0.06349682  0.07979012     0.09600
H2282       H  0.86272309  0.03707608  0.09425044     0.13200
H2283       H  0.94538468  0.15039303  0.07081251     0.11900
H2284       H  0.99709912  0.15151833  0.08014311     0.13100
H2285       H  0.02372422  0.12591755  0.09435781     0.12100
H2286       H  0.88507534  0.02094833  0.10883923     0.09200
H2287       H  0.91387443  0.99844310  0.12289338     0.12500
H2288       H  0.01794577  0.08039744  0.10970672     0.14400
C2289       C  0.57424374  0.03377702  0.11852015    -0.01100
C2290       C  0.57821496  0.01122925  0.10965855    -0.09200
C2291       C  0.60891079  0.02467425  0.10197971    -0.18000
C2292       C  0.63642579  0.06156111  0.10280866     0.04400
C2293       C  0.63197629  0.08439520  0.11180402     0.18600
C2294       C  0.60118051  0.07027179  0.11962109    -0.19400
C2295       C  0.65779645  0.12137036  0.11268268    -0.20700
C2296       C  0.68723079  0.13661074  0.10440257    -0.19200
C2297       C  0.69203519  0.11501959  0.09527541     0.20000
C2298       C  0.66743977  0.07692044  0.09468968     0.02100
C2299       C  0.67472975  0.05593734  0.08587178    -0.14000
C2300       C  0.70397608  0.07236901  0.07749419    -0.11700
C2301       C  0.72684954  0.11019477  0.07752865     0.01600
C2302       C  0.72108736  0.13133283  0.08661437    -0.23900
H2303       H  0.55740697  0.98297087  0.10870351     0.09600
H2304       H  0.60981279  0.00573057  0.09526640     0.13200
H2305       H  0.59767514  0.08785337  0.12636410     0.11900
H2306       H  0.65467885  0.13884804  0.11958133     0.13100
H2307       H  0.70620172  0.16554644  0.10506716     0.12100
H2308       H  0.65839544  0.02672867  0.08521378     0.09200
H2309       H  0.70828257  0.05532724  0.07076406     0.12500
H2310       H  0.73929518  0.16051529  0.08697319     0.14400
C2311       C  0.86406457  0.12482269  0.16468962    -0.01100
C2312       C  0.85082175  0.08792282  0.16763176    -0.09200
C2313       C  0.86947550  0.06998037  0.16394075    -0.18000
C2314       C  0.90233132  0.08847420  0.15712127     0.04400
C2315       C  0.91442228  0.12527413  0.15342188     0.18600
C2316       C  0.89524597  0.14300191  0.15719281    -0.19400
C2317       C  0.94618501  0.14450477  0.14630405    -0.20700
C2318       C  0.96642675  0.12825778  0.14288949    -0.19200
C2319       C  0.95573435  0.09243760  0.14661893     0.20000
C2320       C  0.92366346  0.07195801  0.15385248     0.02100
C2321       C  0.91458773  0.03597227  0.15747514    -0.14000
C2322       C  0.93527296  0.02036657  0.15337637    -0.11700
C2323       C  0.96574438  0.04014963  0.14567947     0.01600
C2324       C  0.97652879  0.07667365  0.14281846    -0.23900
H2325       H  0.82661942  0.07332098  0.17336830     0.09600
H2326       H  0.85788418  0.04183261  0.16678573     0.13200
H2327       H  0.90571089  0.17158063  0.15493682     0.11900
H2328       H  0.95553403  0.17241709  0.14338073     0.13100
H2329       H  0.49689702  0.14794449  0.14000021     0.12100
H2330       H  0.89117779  0.01893421  0.16321959     0.09200
H2331       H  0.92653980  0.49359382  0.15578363     0.12500
H2332       H  0.50539073  0.09564571  0.13868407     0.14400
C2333       C  0.96118676  0.42858699  0.14584551    -0.01100
C2334       C  0.92403836  0.40750567  0.14388447    -0.09200
C2335       C  0.90514577  0.37039743  0.14708562    -0.18000
C2336       C  0.92291612  0.35283881  0.15236471     0.04400
C2337       C  0.96039547  0.37472531  0.15481688     0.18600
C2338       C  0.97905314  0.41217061  0.15158706    -0.19400
C2339       C  0.97925755  0.35888529  0.16017718    -0.20700
C2340       C  0.96178387  0.32199466  0.16332334    -0.19200
C2341       C  0.92501259  0.29968757  0.16103728     0.20000
C2342       C  0.90501916  0.31452337  0.15533512     0.02100
C2343       C  0.86801963  0.29032115  0.15301035    -0.14000
C2344       C  0.85133212  0.25364821  0.15690101    -0.11700
C2345       C  0.87088362  0.23989610  0.16316206     0.01600
C2346       C  0.90791266  0.26284121  0.16484490    -0.23900
H2347       H  0.90986519  0.41950037  0.13920641     0.09600
H2348       H  0.87678497  0.35599182  0.14506833     0.13200
H2349       H  0.50788188  0.42259262  0.14854857     0.11900
H2350       H  0.50711487  0.36653827  0.15426654     0.13100
H2351       H  0.97718292  0.31082870  0.16763941     0.12100
H2352       H  0.85108665  0.29919107  0.14851929     0.09200
H2353       H  0.82258771  0.23655816  0.15572975     0.12500
H2354       H  0.92304414  0.25239361  0.16984563     0.14400
C2355       C  0.75935663  0.13457424  0.16333894    -0.01100
C2356       C  0.73759350  0.15028108  0.16530497    -0.09200
C2357       C  0.70120617  0.13155399  0.16208928    -0.18000
C2358       C  0.68525627  0.09620259  0.15673630     0.04400
C2359       C  0.70816649  0.08167300  0.15377788     0.18600
C2360       C  0.74486625  0.10088645  0.15710273    -0.19400
C2361       C  0.69400910  0.04747055  0.14793383    -0.20700
C2362       C  0.65762550  0.02727127  0.14502316    -0.19200
C2363       C  0.63423095  0.04033548  0.14813912     0.20000
C2364       C  0.64751790  0.07476083  0.15421024     0.02100
C2365       C  0.62236422  0.08606014  0.15747513    -0.14000
C2366       C  0.58620697  0.06541721  0.15390793    -0.11700
C2367       C  0.57399507  0.03290369  0.14709964     0.01600
C2368       C  0.59778627  0.01971310  0.14478264    -0.23900
H2369       H  0.74835742  0.17629573  0.17015968     0.09600
H2370       H  0.68608645  0.14509508  0.16418373     0.13200
H2371       H  0.76151866  0.08849104  0.15567514     0.11900
H2372       H  0.71122242  0.03625129  0.14558190     0.13100
H2373       H  0.64766548  0.00110312  0.14034161     0.12100
H2374       H  0.63002211  0.11119462  0.16247401     0.09200
H2375       H  0.56831418  0.07618344  0.15567709     0.12500
H2376       H  0.58837020  0.99453018  0.13946114     0.14400
C2377       C  0.95388090  0.06249075  0.68206296    -0.01100
C2378       C  0.91695485  0.04391633  0.67955022    -0.09200
C2379       C  0.90310849  0.05324124  0.66910607    -0.18000
C2380       C  0.92585931  0.08162568  0.66068770     0.04400
C2381       C  0.96310503  0.10174778  0.66359705     0.18600
C2382       C  0.97680454  0.09192873  0.67416955    -0.19400
C2383       C  0.98636829  0.13134203  0.65588308    -0.20700
C2384       C  0.97328718  0.14178236  0.64548683    -0.19200
C2385       C  0.93682568  0.12215701  0.64229885     0.20000
C2386       C  0.91281539  0.09110121  0.64962529     0.02100
C2387       C  0.87678672  0.07072871  0.64552059    -0.14000
C2388       C  0.86459238  0.08212028  0.63511938    -0.11700
C2389       C  0.88772656  0.11417847  0.62845640     0.01600
C2390       C  0.92406986  0.13363764  0.63192312    -0.23900
H2391       H  0.89853286  0.02142371  0.68557907     0.09600
H2392       H  0.87439550  0.03776124  0.66793404     0.13200
H2393       H  0.00543326  0.10656640  0.67602471     0.11900
H2394       H  0.01479333  0.14686517  0.65801793     0.13100
H2395       H  0.99184514  0.16527558  0.63986730     0.12100
H2396       H  0.85730241  0.04583320  0.65013959     0.09200
H2397       H  0.83649544  0.06626001  0.63256625     0.12500
H2398       H  0.94236369  0.15813426  0.62668921     0.14400
C2399       C  0.94703198  0.39456680  0.68193034    -0.01100
C2400       C  0.91038967  0.37785922  0.67904295    -0.09200
C2401       C  0.89646993  0.35487987  0.66846465    -0.18000
C2402       C  0.91901215  0.34816210  0.66030772     0.04400
C2403       C  0.95598131  0.36437408  0.66351944     0.18600
C2404       C  0.96952664  0.38713466  0.67425182    -0.19400
C2405       C  0.97940211  0.35819017  0.65591515    -0.20700
C2406       C  0.96680567  0.33572093  0.64524566    -0.19200
C2407       C  0.93058367  0.31924127  0.64184625     0.20000
C2408       C  0.90623378  0.32573334  0.64916354     0.02100
C2409       C  0.87018312  0.30931437  0.64501926    -0.14000
C2410       C  0.85843783  0.28572666  0.63453409    -0.11700
C2411       C  0.88214671  0.27778231  0.62783475     0.01600
C2412       C  0.91841205  0.29552211  0.63132702    -0.23900
H2413       H  0.89240593  0.38306204  0.68486539     0.09600
H2414       H  0.86803794  0.34302696  0.66689966     0.13200
H2415       H  0.99797093  0.40009908  0.67635649     0.11900
H2416       H  0.00762205  0.37059416  0.65829395     0.13100
H2417       H  0.98551853  0.33103262  0.63964867     0.12100
H2418       H  0.85026137  0.31368057  0.64977514     0.09200
H2419       H  0.83029845  0.27257678  0.63198662     0.12500
H2420       H  0.93710270  0.28994405  0.62610165     0.14400
C2421       C  0.72494235  0.11035863  0.62898780    -0.01100
C2422       C  0.71432265  0.07607588  0.63432013    -0.09200
C2423       C  0.69241682  0.06415606  0.64517716    -0.18000
C2424       C  0.68047889  0.08637986  0.65110421     0.04400
C2425       C  0.68968900  0.12027938  0.64523108     0.18600
C2426       C  0.71171159  0.13190884  0.63429836    -0.19400
C2427       C  0.67737681  0.14267414  0.65041586    -0.20700
C2428       C  0.65592072  0.13203948  0.66133979    -0.19200
C2429       C  0.64681502  0.09907729  0.66743474     0.20000
C2430       C  0.65945548  0.07603438  0.66255755     0.02100
C2431       C  0.65042627  0.04363429  0.66935667    -0.14000
C2432       C  0.62759055  0.03329201  0.67997984    -0.11700
C2433       C  0.61347530  0.05507211  0.68424923     0.01600
C2434       C  0.62427069  0.08856023  0.67820840    -0.23900
H2435       H  0.72388638  0.05872362  0.63033607     0.09600
H2436       H  0.68555328  0.03754751  0.64872634     0.13200
H2437       H  0.71948766  0.15837525  0.63018045     0.11900
H2438       H  0.68423279  0.16849560  0.64595589     0.13100
H2439       H  0.64636814  0.14971682  0.66504465     0.12100
H2440       H  0.66009895  0.02542625  0.66662085     0.09200
H2441       H  0.62006618  0.00752560  0.68460913     0.12500
H2442       H  0.61373451  0.10580039  0.68149986     0.14400
C2443       C  0.77467183  0.05212892  0.56843785    -0.01100
C2444       C  0.77618656  0.02080328  0.57162329    -0.09200
C2445       C  0.76284613  0.99118008  0.56325390    -0.18000
C2446       C  0.74937388  0.49114228  0.55163736     0.04400
C2447       C  0.74394775  0.02309152  0.54860328     0.18600
C2448       C  0.75839562  0.05307248  0.55694274    -0.19400
C2449       C  0.72642328  0.02417081  0.53746627    -0.20700
C2450       C  0.71679975  0.49533438  0.52872472    -0.19200
C2451       C  0.71798611  0.46358265  0.53152237     0.20000
C2452       C  0.73534618  0.46146312  0.54280198     0.02100
C2453       C  0.73812270  0.42984517  0.54467957    -0.14000
C2454       C  0.72316476  0.40109796  0.53595343    -0.11700
C2455       C  0.70451020  0.40255183  0.52520381     0.01600
C2456       C  0.70180382  0.43383884  0.52310865    -0.23900
H2457       H  0.78848226  0.01951547  0.58050740     0.09600
H2458       H  0.76413644  0.46603949  0.56709219     0.13200
H2459       H  0.75658558  0.07709038  0.55456180     0.11900
H2460       H  0.72383440  0.04782965  0.53527775     0.13100
H2461       H  0.70406322  0.49731569  0.52004878     0.12100
H2462       H  0.75222317  0.42678707  0.55267832     0.09200
H2463       H  0.72611886  0.37743201  0.53765662     0.12500
H2464       H  0.68669631  0.43495141  0.51501077     0.14400
C2465       C  0.59547832  0.29883537  0.52506936    -0.01100
C2466       C  0.56743487  0.26346551  0.52276800    -0.09200
C2467       C  0.53728837  0.24761027  0.53073212    -0.18000
C2468       C  0.53464490  0.26641940  0.54154400     0.04400
C2469       C  0.56398905  0.30171375  0.54417167     0.18600
C2470       C  0.59384759  0.31762853  0.53589219    -0.19400
C2471       C  0.56340748  0.32081734  0.55506665    -0.20700
C2472       C  0.03478996  0.30229465  0.56564853    -0.19200
C2473       C  0.00432561  0.26892615  0.56278220     0.20000
C2474       C  0.50421939  0.25129392  0.54992942     0.02100
C2475       C  0.47310001  0.21734386  0.54762188    -0.14000
C2476       C  0.94140947  0.20438207  0.55668085    -0.11700
C2477       C  0.94342996  0.22206734  0.56825563     0.01600
C2478       C  0.97503574  0.25419406  0.57132532    -0.23900
H2479       H  0.56902830  0.24770015  0.51486178     0.09600
H2480       H  0.51690900  0.22027812  0.52830718     0.13200
H2481       H  0.61589241  0.34479187  0.53784998     0.11900
H2482       H  0.58577966  0.34764748  0.55715855     0.13100
H2483       H  0.03608470  0.31662011  0.57443834     0.12100
H2484       H  0.47016468  0.20094381  0.53930275     0.09200
H2485       H  0.91708457  0.17961524  0.55410577     0.12500
H2486       H  0.97640859  0.26831869  0.58018305     0.14400
C2487       C  0.77278732  0.22140817  0.56838784    -0.01100
C2488       C  0.74327165  0.22446838  0.57249123    -0.09200
C2489       C  0.72700218  0.23780263  0.56423054    -0.18000
C2490       C  0.74029878  0.24906930  0.55163389     0.04400
C2491       C  0.77126835  0.24741133  0.54775678     0.18600
C2492       C  0.78660660  0.23288017  0.55600440    -0.19400
C2493       C  0.78710298  0.26080604  0.53575471    -0.20700
C2494       C  0.77337760  0.27687619  0.52763634    -0.19200
C2495       C  0.74241388  0.27811465  0.53106393     0.20000
C2496       C  0.72455336  0.26278783  0.54286031     0.02100
C2497       C  0.69148222  0.26142363  0.54527842    -0.14000
C2498       C  0.67737815  0.27571329  0.53649768    -0.11700
C2499       C  0.69618131  0.29285746  0.52525274     0.01600
C2500       C  0.72908966  0.29451020  0.52273579    -0.23900
H2501       H  0.73238864  0.21605398  0.58207312     0.09600
H2502       H  0.70464290  0.23980373  0.56806759     0.13200
H2503       H  0.80991815  0.23123836  0.55285990     0.11900
H2504       H  0.81078559  0.25968119  0.53276608     0.13100
H2505       H  0.78669640  0.28784983  0.51852796     0.12100
H2506       H  0.67541122  0.24855488  0.55368888     0.09200
H2507       H  0.65153164  0.27337701  0.53856291     0.12500
H2508       H  0.74465794  0.30881106  0.51435719     0.14400
C2509       C  0.70760110  0.40540524  0.49610268    -0.01100
C2510       C  0.74438382  0.42780511  0.49843167    -0.09200
C2511       C  0.76231102  0.46453383  0.49479305    -0.18000
C2512       C  0.74390218  0.48018959  0.48862908     0.04400
C2513       C  0.70727435  0.45655465  0.48533259     0.18600
C2514       C  0.68954061  0.41950355  0.48904739    -0.19400
C2515       C  0.68825844  0.47036112  0.47873107    -0.20700
C2516       C  0.70604755  0.00941579  0.47546742    -0.19200
C2517       C  0.74227237  0.03263443  0.47841920     0.20000
C2518       C  0.76217871  0.01874906  0.48479282     0.02100
C2519       C  0.79851974  0.04380293  0.48780882    -0.14000
C2520       C  0.81479695  0.08050438  0.48400542    -0.11700
C2521       C  0.79546746  0.09344333  0.47715601     0.01600
C2522       C  0.75891407  0.06956105  0.47475278    -0.23900
H2523       H  0.75881865  0.41732624  0.50383885     0.09600
H2524       H  0.79037174  0.48017234  0.49718468     0.13200
H2525       H  0.66104735  0.40232369  0.48726707     0.11900
H2526       H  0.66042621  0.45260921  0.47613901     0.13100
H2527       H  0.69076359  0.01981657  0.47056597     0.12100
H2528       H  0.81521920  0.03569373  0.49289664     0.09200
H2529       H  0.84312196  0.09838108  0.48583009     0.12500
H2530       H  0.74384439  0.07947671  0.46941814     0.14400
C2531       C  0.59300808  0.30172681  0.49623959    -0.01100
C2532       C  0.57101393  0.31690917  0.49876321    -0.09200
C2533       C  0.53475980  0.29881019  0.49526449    -0.18000
C2534       C  0.51903831  0.26453273  0.48908685     0.04400
C2535       C  0.54215843  0.25061927  0.48561483     0.18600
C2536       C  0.57878258  0.26926101  0.48918212    -0.19400
C2537       C  0.52825295  0.21755499  0.47897866    -0.20700
C2538       C  0.49198860  0.19792679  0.47577531    -0.19200
C2539       C  0.96831658  0.20905837  0.47905318     0.20000
C2540       C  0.98046069  0.24193040  0.48607855     0.02100
C2541       C  0.95462035  0.25222593  0.48945443    -0.14000
C2542       C  0.91892811  0.23210355  0.48526167    -0.11700
C2543       C  0.90783422  0.20123373  0.47757616     0.01600
C2544       C  0.93244496  0.18926175  0.47484921    -0.23900
H2545       H  0.58150576  0.34201136  0.50418602     0.09600
H2546       H  0.51949277  0.31191944  0.49778185     0.13200
H2547       H  0.59553771  0.25720784  0.48727227     0.11900
H2548       H  0.54557694  0.20676414  0.47623286     0.13100
H2549       H  0.48228907  0.17264958  0.47050939     0.12100
H2550       H  0.96133811  0.27601887  0.49517214     0.09200
H2551       H  0.90043042  0.24188232  0.48742899     0.12500
H2552       H  0.92394502  0.16526437  0.46891979     0.14400
C2553       C  0.80070111  0.20704221  0.47829027    -0.01100
C2554       C  0.76901812  0.18647209  0.48531536    -0.09200
C2555       C  0.74770655  0.20164002  0.48909171    -0.18000
C2556       C  0.75733846  0.23797254  0.48578920     0.04400
C2557       C  0.79063524  0.25926133  0.47931511     0.18600
C2558       C  0.81200662  0.24386993  0.47581480    -0.19400
C2559       C  0.80193984  0.29549983  0.47599274    -0.20700
C2560       C  0.78113966  0.31136488  0.47910005    -0.19200
C2561       C  0.74814265  0.29129567  0.48544675     0.20000
C2562       C  0.73538660  0.25405859  0.48866725     0.02100
C2563       C  0.70131372  0.23474172  0.49467578    -0.14000
C2564       C  0.68227664  0.25238561  0.49827850    -0.11700
C2565       C  0.69633877  0.28975806  0.49601541     0.01600
C2566       C  0.72848927  0.30866538  0.48904429    -0.23900
H2567       H  0.75958453  0.15791832  0.48721321     0.09600
H2568       H  0.72337388  0.18399228  0.49429401     0.13200
H2569       H  0.83653592  0.25994111  0.47035543     0.11900
H2570       H  0.82720672  0.31179965  0.47098437     0.13100
H2571       H  0.79103563  0.33964901  0.47655730     0.12100
H2572       H  0.68916215  0.20621813  0.49705239     0.09200
H2573       H  0.65742865  0.23728306  0.50363545     0.12500
H2574       H  0.73961988  0.33762077  0.48732942     0.14400
C2575       C  0.93392912  0.46956175  0.86055147    -0.01100
C2576       C  0.90382025  0.47259289  0.85735664    -0.09200
C2577       C  0.87337041  0.45739439  0.86517727    -0.18000
C2578       C  0.87274648  0.44013604  0.87683766     0.04400
C2579       C  0.90471401  0.44090941  0.88076157     0.18600
C2580       C  0.93454703  0.45493321  0.87254673    -0.19400
C2581       C  0.90671833  0.42777160  0.89286819    -0.20700
C2582       C  0.87738934  0.41374817  0.90117276    -0.19200
C2583       C  0.84491181  0.41090283  0.89729386     0.20000
C2584       C  0.84187247  0.42305907  0.88490111     0.02100
C2585       C  0.80783735  0.41673140  0.88095361    -0.14000
C2586       C  0.77836840  0.40042946  0.88919444    -0.11700
C2587       C  0.78191846  0.39037267  0.90165896     0.01600
C2588       C  0.81524810  0.39554394  0.90565146    -0.23900
H2589       H  0.90369380  0.48688143  0.84878961     0.09600
H2590       H  0.85114168  0.46056482  0.86205832     0.13200
H2591       H  0.95819788  0.45428255  0.87561735     0.11900
H2592       H  0.93125879  0.42876541  0.89599001     0.13100
H2593       H  0.87986387  0.40430343  0.91056789     0.12100
H2594       H  0.80299930  0.42329392  0.87144843     0.09200
H2595       H  0.75271948  0.39618673  0.88583067     0.12500
H2596       H  0.81793148  0.38698211  0.91518515     0.14400
C2597       C  0.53919496  0.46756300  0.85936317    -0.01100
C2598       C  0.57612261  0.48043870  0.85857301    -0.09200
C2599       C  0.59249346  0.46713123  0.86684808    -0.18000
C2600       C  0.57227113  0.44078993  0.87634823     0.04400
C2601       C  0.53481361  0.42820884  0.87713171     0.18600
C2602       C  0.51865735  0.44098040  0.86847283    -0.19400
C2603       C  0.51372735  0.40329068  0.88664719    -0.20700
C2604       C  0.52913027  0.39084566  0.89556431    -0.19200
C2605       C  0.56575563  0.40201754  0.89490962     0.20000
C2606       C  0.58776667  0.42661279  0.88513395     0.02100
C2607       C  0.62410332  0.43526773  0.88442698    -0.14000
C2608       C  0.63777189  0.41983390  0.89296227    -0.11700
C2609       C  0.61613015  0.39628641  0.90268646     0.01600
C2610       C  0.58032830  0.38793532  0.90377322    -0.19700
H2611       H  0.58964329  0.99560226  0.85087565     0.09600
H2612       H  0.62110323  0.47864268  0.86577796     0.13200
H2613       H  0.99065270  0.43073725  0.86854507     0.11900
H2614       H  0.98556352  0.39283122  0.88657436     0.13100
H2615       H  0.51214160  0.37186891  0.90290350     0.12100
H2616       H  0.64235389  0.45299315  0.87716014     0.09200
H2617       H  0.66548742  0.42630996  0.89196093     0.12500
H2618       H  0.56339796  0.36911905  0.91117124     0.14400
C2619       C  0.53436257  0.07064412  0.86045080    -0.01100
C2620       C  0.51385851  0.07129040  0.87082039    -0.09200
C2621       C  0.52789186  0.10040855  0.87936397    -0.18000
C2622       C  0.56299672  0.13012752  0.87767195     0.04400
C2623       C  0.58305936  0.13000296  0.86677974     0.18600
C2624       C  0.56907362  0.09990054  0.85853964    -0.19400
C2625       C  0.61690071  0.15993458  0.86416277    -0.20700
C2626       C  0.63128359  0.19019782  0.87214361    -0.19200
C2627       C  0.61277345  0.19054117  0.88319014     0.20000
C2628       C  0.57877302  0.16011024  0.88631206     0.02100
C2629       C  0.56244929  0.16071183  0.89807707    -0.14000
C2630       C  0.57886389  0.19077076  0.90621130    -0.11700
C2631       C  0.61144932  0.22125099  0.90273335     0.01600
C2632       C  0.62829003  0.22104137  0.89123678    -0.23900
H2633       H  0.98370735  0.05267854  0.87083598     0.09600
H2634       H  0.51037646  0.09919267  0.88703749     0.13200
H2635       H  0.58527359  0.09919966  0.85065034     0.11900
H2636       H  0.63210619  0.16015131  0.85578775     0.13100
H2637       H  0.65734007  0.21323638  0.86978098     0.12100
H2638       H  0.53743360  0.13811161  0.90138396     0.09200
H2639       H  0.56572225  0.19047162  0.91515431     0.12500
H2640       H  0.65398004  0.24442537  0.88869832     0.14400
C2641       C  0.88822319  0.44204321  0.74182485    -0.01100
C2642       C  0.86070413  0.44995276  0.73968601    -0.09200
C2643       C  0.83087587  0.43600375  0.74780444    -0.18000
C2644       C  0.82744208  0.41300472  0.75819969     0.04400
C2645       C  0.85433076  0.40303725  0.75976838     0.18600
C2646       C  0.88489194  0.41840276  0.75181600    -0.19400
C2647       C  0.85039888  0.37774683  0.76921021    -0.20700
C2648       C  0.82017424  0.36208351  0.77713434    -0.19200
C2649       C  0.79410138  0.37269418  0.77620226     0.20000
C2650       C  0.79800021  0.39915996  0.76696226     0.02100
C2651       C  0.77294028  0.41161246  0.76715864    -0.14000
C2652       C  0.74440400  0.39729538  0.77582115    -0.11700
C2653       C  0.73937000  0.36965781  0.78430665     0.01600
C2654       C  0.76438384  0.35753269  0.78457142    -0.23900
H2655       H  0.86271105  0.46777130  0.73187848     0.09600
H2656       H  0.81061496  0.44311745  0.74555479     0.13200
H2657       H  0.90589149  0.41156660  0.75326006     0.11900
H2658       H  0.87058884  0.36967121  0.77035717     0.13100
H2659       H  0.81758327  0.34218702  0.78422715     0.12100
H2660       H  0.77544611  0.43336298  0.76107101     0.09200
H2661       H  0.72684757  0.40873303  0.77616333     0.12500
H2662       H  0.76087788  0.33666719  0.79139837     0.14400
C2663       C  0.63226836  0.36819646  0.78527479    -0.01100
C2664       C  0.59926931  0.36522178  0.78882201    -0.09200
C2665       C  0.58246094  0.37906139  0.78097117    -0.18000
C2666       C  0.59731190  0.39486554  0.76892290     0.04400
C2667       C  0.62926845  0.39536861  0.76496552     0.18600
C2668       C  0.64647431  0.38268877  0.77315825    -0.19400
C2669       C  0.64383464  0.40817022  0.75276736    -0.20700
C2670       C  0.62720187  0.42042945  0.74433628    -0.19200
C2671       C  0.59633748  0.42142843  0.74806135     0.20000
C2672       C  0.58129790  0.40937675  0.76051076     0.02100
C2673       C  0.55141225  0.41310985  0.76404961    -0.14000
C2674       C  0.53707918  0.42799603  0.75554240    -0.11700
C2675       C  0.55151402  0.43892938  0.74318086     0.01600
C2676       C  0.58088890  0.43517218  0.73946601    -0.23900
H2677       H  0.58594170  0.35167920  0.79761811     0.09600
H2678       H  0.55731797  0.37595252  0.78439522     0.13200
H2679       H  0.67089679  0.38388771  0.76990120     0.11900
H2680       H  0.66806959  0.40831384  0.74966405     0.13100
H2681       H  0.63894405  0.42980181  0.73490514     0.12100
H2682       H  0.53918265  0.40568959  0.77343289     0.09200
H2683       H  0.51449546  0.43093431  0.75865608     0.12500
H2684       H  0.59260986  0.44424797  0.73000727     0.14400
C2685       C  0.63530025  0.26405486  0.78625682    -0.01100
C2686       C  0.59999284  0.23650506  0.78854459    -0.09200
C2687       C  0.58418457  0.20565381  0.78080466    -0.18000
C2688       C  0.60304944  0.20213424  0.77023176     0.04400
C2689       C  0.63843750  0.23098793  0.76769306     0.18600
C2690       C  0.65442095  0.26117534  0.77585266    -0.19400
C2691       C  0.65729842  0.23000627  0.75684868    -0.20700
C2692       C  0.64124138  0.20136617  0.74819905    -0.19200
C2693       C  0.60656813  0.17239702  0.75049499     0.20000
C2694       C  0.58754227  0.17169272  0.76180840     0.02100
C2695       C  0.55388454  0.14046200  0.76423367    -0.14000
C2696       C  0.53908812  0.11185871  0.75549952    -0.11700
C2697       C  0.55704232  0.11367774  0.74404503     0.01600
C2698       C  0.59083117  0.14389157  0.74159549    -0.23900
H2699       H  0.58428822  0.23913801  0.79620281     0.09600
H2700       H  0.55673757  0.18580074  0.78303337     0.13200
H2701       H  0.68166012  0.28284899  0.77399384     0.11900
H2702       H  0.68425559  0.25201207  0.75486398     0.13100
H2703       H  0.65611012  0.20177113  0.73969751     0.12100
H2704       H  0.53868598  0.13697960  0.77289925     0.09200
H2705       H  0.51327259  0.08824060  0.75767796     0.12500
H2706       H  0.60529727  0.14471971  0.73291637     0.14400
C2707       C  0.53700429  0.46171680  0.83087876    -0.01100
C2708       C  0.52314302  0.42466491  0.83367133    -0.09200
C2709       C  0.54237484  0.40697761  0.83058573    -0.18000
C2710       C  0.57626504  0.42587656  0.82446913     0.04400
C2711       C  0.58864405  0.46256423  0.82059227     0.18600
C2712       C  0.56907468  0.48018705  0.82388281    -0.19400
C2713       C  0.62100727  0.48171558  0.81379751    -0.20700
C2714       C  0.64130533  0.46525939  0.81074479    -0.19200
C2715       C  0.63034216  0.42959336  0.81474235     0.20000
C2716       C  0.59811651  0.40963247  0.82194335     0.02100
C2717       C  0.58928257  0.37432288  0.82627927    -0.14000
C2718       C  0.60966439  0.35822914  0.82251123    -0.11700
C2719       C  0.63928310  0.37679945  0.81435603     0.01600
C2720       C  0.65066486  0.41318911  0.81112157    -0.23900
H2721       H  0.49825210  0.40992802  0.83903786     0.09600
H2722       H  0.53030988  0.37868066  0.83328868     0.13200
H2723       H  0.57480332  0.00685078  0.82124679     0.11900
H2724       H  0.63057109  0.50955758  0.81073625     0.13100
H2725       H  0.66585963  0.48060912  0.80524418     0.12100
H2726       H  0.56626976  0.35815804  0.83231600     0.09200
H2727       H  0.60064431  0.33021335  0.82516805     0.12500
H2728       H  0.67389270  0.42774214  0.80489989     0.14400
C2729       C  0.74561470  0.37495743  0.81287900    -0.01100
C2730       C  0.75660596  0.35562038  0.82076692    -0.09200
C2731       C  0.79258415  0.37117647  0.82464444    -0.18000
C2732       C  0.81887100  0.40671312  0.82062793     0.04400
C2733       C  0.80705765  0.42670299  0.81309230     0.18600
C2734       C  0.77082110  0.41094610  0.80946243    -0.19400
C2735       C  0.83160742  0.46206856  0.80896249    -0.20700
C2736       C  0.86769220  0.47839990  0.81230389    -0.19200
C2737       C  0.88039302  0.45968327  0.81974276     0.20000
C2738       C  0.85629297  0.42329859  0.82383712     0.02100
C2739       C  0.87076467  0.40533207  0.83103392    -0.14000
C2740       C  0.90682475  0.42353901  0.83476349    -0.11700
C2741       C  0.92977667  0.46019405  0.83149866     0.01600
C2742       C  0.91680555  0.47763455  0.82350390    -0.23900
H2743       H  0.73769121  0.32771286  0.82341780     0.09600
H2744       H  0.79916226  0.35447976  0.83057479     0.13200
H2745       H  0.76242251  0.42612869  0.80338286     0.11900
H2746       H  0.82277774  0.47734626  0.80314327     0.13100
H2747       H  0.88053683  0.00911541  0.81389265     0.12100
H2748       H  0.85466526  0.37751762  0.83421117     0.09200
H2749       H  0.91640397  0.40954072  0.84090437     0.12500
H2750       H  0.93127783  0.00749253  0.82317860     0.14400
C2751       C  0.63865027  0.26305236  0.81488255    -0.01100
C2752       C  0.65269024  0.23985294  0.81247249    -0.09200
C2753       C  0.63350228  0.20282940  0.81577024    -0.18000
C2754       C  0.59930237  0.18750340  0.82169211     0.04400
C2755       C  0.58650780  0.21174309  0.82512645     0.18600
C2756       C  0.60616594  0.24910866  0.82171069    -0.19400
C2757       C  0.55352775  0.19822010  0.83153763    -0.20700
C2758       C  0.53293699  0.16128559  0.83455849    -0.19200
C2759       C  0.54425429  0.13656217  0.83098646     0.20000
C2760       C  0.57735278  0.14913770  0.82433138     0.02100
C2761       C  0.58680946  0.12264941  0.82059573    -0.14000
C2762       C  0.56569383  0.08585113  0.82418316    -0.11700
C2763       C  0.53447280  0.07415512  0.83154511     0.01600
C2764       C  0.52316931  0.09947540  0.83441207    -0.23900
H2765       H  0.67765916  0.24997791  0.80717167     0.09600
H2766       H  0.64573547  0.18666885  0.81328152     0.13200
H2767       H  0.59487303  0.26667199  0.82350570     0.11900
H2768       H  0.54356431  0.21638071  0.83425829     0.13100
H2769       H  0.50779167  0.15193366  0.83967559     0.12100
H2770       H  0.61084679  0.12973916  0.81515203     0.09200
H2771       H  0.57511575  0.06697647  0.82192977     0.12500
H2772       H  0.49902923  0.09065722  0.84012945     0.14400
C2773       C  0.94358409  0.39353258  0.23240782    -0.01100
C2774       C  0.91542855  0.38820995  0.22431212    -0.09200
C2775       C  0.90068270  0.35916363  0.21566871    -0.18000
C2776       C  0.91329654  0.33396003  0.21500607     0.04400
C2777       C  0.94197197  0.33961709  0.22321353     0.18600
C2778       C  0.95720722  0.36952646  0.23158487    -0.19400
C2779       C  0.95459490  0.31478026  0.22332464    -0.20700
C2780       C  0.93854276  0.28365984  0.21576259    -0.19200
C2781       C  0.91021714  0.27720185  0.20761105     0.20000
C2782       C  0.89782211  0.30276475  0.20681607     0.02100
C2783       C  0.87027969  0.29573356  0.19794294    -0.14000
C2784       C  0.85506519  0.26415135  0.19049800    -0.11700
C2785       C  0.86680742  0.23879080  0.19164230     0.01600
C2786       C  0.89421540  0.24528057  0.20021521    -0.23900
H2787       H  0.90457910  0.40652305  0.22468565     0.09600
H2788       H  0.87881113  0.35663840  0.20989793     0.13200
H2789       H  0.97894371  0.37332975  0.23782188     0.11900
H2790       H  0.47686344  0.31780454  0.22682735     0.13100
H2791       H  0.94836083  0.26449119  0.21629476     0.12100
H2792       H  0.86007897  0.31416335  0.19647244     0.09200
H2793       H  0.83380757  0.25932862  0.18386796     0.12500
H2794       H  0.90343954  0.22563781  0.20095474     0.14400
C2795       C  0.86302352  0.13037894  0.19336700    -0.01100
C2796       C  0.84076676  0.10378745  0.20220498    -0.09200
C2797       C  0.85503019  0.08933025  0.21091865    -0.18000
C2798       C  0.89237373  0.10178937  0.21118953     0.04400
C2799       C  0.91477084  0.12930992  0.20225649     0.18600
C2800       C  0.89990564  0.14295769  0.19337999    -0.19400
C2801       C  0.95195681  0.14343659  0.20233140    -0.20700
C2802       C  0.96757427  0.13085288  0.21109240    -0.19200
C2803       C  0.94634490  0.10334310  0.21984815     0.20000
C2804       C  0.90839327  0.08820707  0.22000537     0.02100
C2805       C  0.88823482  0.05985769  0.22886380    -0.14000
C2806       C  0.90501729  0.04665847  0.23698076    -0.11700
C2807       C  0.94240329  0.06156485  0.23671880     0.01600
C2808       C  0.96291031  0.09037396  0.22827672    -0.23900
H2809       H  0.81216117  0.09412809  0.20233279     0.09600
H2810       H  0.83623585  0.06889511  0.21743095     0.13200
H2811       H  0.91712285  0.16408327  0.18664604     0.11900
H2812       H  0.96913625  0.16453050  0.19559544     0.13100
H2813       H  0.99649119  0.14243847  0.21091115     0.12100
H2814       H  0.85939628  0.04680229  0.22958530     0.09200
H2815       H  0.88855626  0.02447915  0.24346410     0.12500
H2816       H  0.99183420  0.10194902  0.22793811     0.14400
C2817       C  0.76024219  0.13329686  0.19176850    -0.01100
C2818       C  0.73571507  0.09600577  0.19095616    -0.09200
C2819       C  0.70484640  0.08025262  0.19858681    -0.18000
C2820       C  0.69773093  0.10157513  0.20733728     0.04400
C2821       C  0.72251743  0.13967866  0.20783962     0.18600
C2822       C  0.75362740  0.15503632  0.20018613    -0.19400
C2823       C  0.71623116  0.16220441  0.21602406    -0.20700
C2824       C  0.68604145  0.14766317  0.22390950    -0.19200
C2825       C  0.66171083  0.11016461  0.22394336     0.20000
C2826       C  0.66719492  0.08650757  0.21568388     0.02100
C2827       C  0.64227628  0.04873543  0.21635384    -0.14000
C2828       C  0.61345627  0.03509476  0.22494958    -0.11700
C2829       C  0.60811593  0.05854112  0.23301026     0.01600
C2830       C  0.63215637  0.09611094  0.23235773    -0.23900
H2831       H  0.74070213  0.07893009  0.18446693     0.09600
H2832       H  0.68716221  0.05138822  0.19739801     0.13200
H2833       H  0.77266781  0.18402665  0.20067640     0.11900
H2834       H  0.73487173  0.19128231  0.21636083     0.13100
H2835       H  0.68198655  0.16582038  0.23017478     0.12100
H2836       H  0.64455432  0.02890827  0.21051776     0.09200
H2837       H  0.59506850  0.00596606  0.22521620     0.12500
H2838       H  0.62831859  0.11442742  0.23862393     0.14400
C2839       C  0.55854570  0.45127510  0.29338493    -0.01100
C2840       C  0.55754129  0.41791837  0.29188932    -0.09200
C2841       C  0.56652407  0.40263350  0.30210379    -0.18000
C2842       C  0.57681620  0.42049396  0.31413753     0.04400
C2843       C  0.58040070  0.45562193  0.31522261     0.18600
C2844       C  0.57113381  0.47048919  0.30493494    -0.19400
C2845       C  0.59246181  0.47541031  0.32665153    -0.20700
C2846       C  0.60105664  0.46094333  0.33711870    -0.19200
C2847       C  0.59676246  0.42592342  0.33652683     0.20000
C2848       C  0.58385939  0.40492098  0.32509807     0.02100
C2849       C  0.57819920  0.36906819  0.32517614    -0.14000
C2850       C  0.58745320  0.35564479  0.33578393    -0.11700
C2851       C  0.60230131  0.37719419  0.34671731     0.01600
C2852       C  0.60589719  0.41194844  0.34720815    -0.23900
H2853       H  0.54809476  0.40275137  0.28302767     0.09600
H2854       H  0.56482492  0.37669846  0.30031973     0.13200
H2855       H  0.57254411  0.00012027  0.30709323     0.11900
H2856       H  0.59101855  0.00212616  0.32887077     0.13100
H2857       H  0.61079181  0.47711470  0.34577566     0.12100
H2858       H  0.56689876  0.35078563  0.31716307     0.09200
H2859       H  0.58390522  0.32842427  0.33528422     0.12500
H2860       H  0.61739920  0.42875449  0.35564283     0.14400
C2861       C  0.61973376  0.21980608  0.34932787    -0.01100
C2862       C  0.58576996  0.18894547  0.35040169    -0.09200
C2863       C  0.57010283  0.16659645  0.33975988    -0.18000
C2864       C  0.58809478  0.17503330  0.32773478     0.04400
C2865       C  0.62393432  0.20439302  0.32714979     0.18600
C2866       C  0.63944012  0.22611932  0.33792923    -0.19400
C2867       C  0.64357726  0.21298863  0.31567554    -0.20700
C2868       C  0.62822247  0.19300079  0.30463544    -0.19200
C2869       C  0.59268954  0.16444975  0.30477985     0.20000
C2870       C  0.57188006  0.15557169  0.31627936     0.02100
C2871       C  0.53565211  0.12773165  0.31578856    -0.14000
C2872       C  0.52180386  0.10723544  0.30472500    -0.11700
C2873       C  0.54338938  0.11397286  0.29380055     0.01600
C2874       C  0.57821265  0.14373128  0.29362549    -0.23900
H2875       H  0.57028154  0.18354342  0.35917780     0.09600
H2876       H  0.54357116  0.14361222  0.34115610     0.13200
H2877       H  0.66615127  0.24971191  0.33717966     0.11900
H2878       H  0.67098677  0.23539042  0.31523182     0.13100
H2879       H  0.64420240  0.19998226  0.29592238     0.12100
H2880       H  0.51756878  0.12056736  0.32385608     0.09200
H2881       H  0.00322885  0.10040332  0.30134943     0.12500
H2882       H  0.59493356  0.14894902  0.28516877     0.14400
C2883       C  0.88462867  0.43211169  0.29289329    -0.01100
C2884       C  0.89022111  0.41598779  0.30370533    -0.09200
C2885       C  0.86794981  0.40719154  0.31438613    -0.18000
C2886       C  0.83926379  0.41450918  0.31462469     0.04400
C2887       C  0.83169422  0.42782386  0.30319424     0.18600
C2888       C  0.85440855  0.43649070  0.29241915    -0.19400
C2889       C  0.80226053  0.43353164  0.30277814    -0.20700
C2890       C  0.78013719  0.42620185  0.31346083    -0.19200
C2891       C  0.78758971  0.41404867  0.32491812     0.20000
C2892       C  0.81779357  0.40893341  0.32578351     0.02100
C2893       C  0.82534828  0.39877252  0.33782222    -0.14000
C2894       C  0.80219882  0.39121085  0.34827972    -0.11700
C2895       C  0.77099739  0.39352447  0.34702965     0.01600
C2896       C  0.76448483  0.40611703  0.33545951    -0.23900
H2897       H  0.91322065  0.41188755  0.30415244     0.09600
H2898       H  0.87427318  0.39525592  0.32237310     0.13200
H2899       H  0.85002756  0.44899141  0.28405685     0.11900
H2900       H  0.79620540  0.44355347  0.29411916     0.13100
H2901       H  0.75718993  0.43031852  0.31278985     0.12100
H2902       H  0.84871737  0.39606993  0.33943559     0.09200
H2903       H  0.80770766  0.38160807  0.35714038     0.12500
H2904       H  0.74053543  0.40846564  0.33451630     0.14400
C2905       C  0.79768353  0.09877795  0.44855145    -0.01100
C2906       C  0.77002268  0.09473991  0.44053615    -0.09200
C2907       C  0.75397881  0.06547252  0.43206313    -0.18000
C2908       C  0.76576894  0.03962054  0.43121690     0.04400
C2909       C  0.79424973  0.04425486  0.43937107     0.18600
C2910       C  0.80968582  0.07352447  0.44801175    -0.19400
C2911       C  0.80741433  0.01991518  0.43874465    -0.20700
C2912       C  0.79301260  0.99101904  0.43014108    -0.19200
C2913       C  0.76480561  0.98551436  0.42205885     0.20000
C2914       C  0.75058181  0.00956888  0.42252348     0.02100
C2915       C  0.71840157  0.49818513  0.41583561    -0.14000
C2916       C  0.70439066  0.46828825  0.40761457    -0.11700
C2917       C  0.71805924  0.44432830  0.40752415     0.01600
C2918       C  0.74518485  0.44985568  0.41617910    -0.23900
H2919       H  0.76072046  0.11435380  0.44087950     0.09600
H2920       H  0.73277395  0.06417931  0.42621104     0.13200
H2921       H  0.83153948  0.07716026  0.45416145     0.11900
H2922       H  0.82915663  0.02336947  0.44490679     0.13100
H2923       H  0.80389308  0.97271388  0.42985505     0.12100
H2924       H  0.70638096  0.51528187  0.41534324     0.09200
H2925       H  0.68301487  0.46420331  0.40115488     0.12500
H2926       H  0.75521924  0.43081907  0.41639397     0.14400
C2927       C  0.90462378  0.20342933  0.44881916    -0.01100
C2928       C  0.93012725  0.24029096  0.45016879    -0.09200
C2929       C  0.95974830  0.25677582  0.44193864    -0.18000
C2930       C  0.96469208  0.23666897  0.43204174     0.04400
C2931       C  0.93885878  0.19902184  0.43088758     0.18600
C2932       C  0.90887811  0.18298660  0.43911141    -0.19400
C2933       C  0.44043171  0.17502194  0.42344203    -0.20700
C2934       C  0.46991297  0.18950850  0.41520301    -0.19200
C2935       C  0.49577896  0.22653180  0.41574825     0.20000
C2936       C  0.99456408  0.25238817  0.42338611     0.02100
C2937       C  0.02012243  0.29001454  0.42325682    -0.14000
C2938       C  0.54670367  0.30094713  0.41581108    -0.11700
C2939       C  0.55070799  0.27770956  0.40722106     0.01600
C2940       C  0.52516347  0.24050152  0.40723890    -0.23900
H2941       H  0.92689629  0.25651348  0.45755723     0.09600
H2942       H  0.97848772  0.28514816  0.44367732     0.13200
H2943       H  0.88901802  0.15436018  0.43811152     0.11900
H2944       H  0.42067870  0.14632094  0.42269911     0.13100
H2945       H  0.47233760  0.17167668  0.40827470     0.12100
H2946       H  0.01805875  0.30937980  0.42943113     0.09200
H2947       H  0.56619670  0.32980116  0.41596922     0.12500
H2948       H  0.52793194  0.22245509  0.40049482     0.14400
C2949       C  0.80146413  0.20584198  0.44977663    -0.01100
C2950       C  0.82379412  0.23564520  0.44210516    -0.09200
C2951       C  0.80933898  0.25127557  0.43406438    -0.18000
C2952       C  0.77173349  0.23680372  0.43326391     0.04400
C2953       C  0.74921167  0.20659673  0.44124980     0.18600
C2954       C  0.76426932  0.19157622  0.44948335    -0.19400
C2955       C  0.71185828  0.19122812  0.44079132    -0.20700
C2956       C  0.69624911  0.20483658  0.43240054    -0.19200
C2957       C  0.71763213  0.23424418  0.42430327     0.20000
C2958       C  0.75569969  0.25084070  0.42469285     0.02100
C2959       C  0.77607686  0.28058230  0.41638502    -0.14000
C2960       C  0.75941813  0.29334894  0.40810119    -0.11700
C2961       C  0.72194563  0.27693261  0.40769884     0.01600
C2962       C  0.70116413  0.24721436  0.41580288    -0.23900
H2963       H  0.85265234  0.24688144  0.44235645     0.09600
H2964       H  0.82836129  0.27429174  0.42848775     0.13200
H2965       H  0.74710723  0.16825905  0.45545521     0.11900
H2966       H  0.69456952  0.16827786  0.44687454     0.13100
H2967       H  0.66723366  0.19215990  0.43220035     0.12100
H2968       H  0.80496847  0.29472724  0.41603606     0.09200
H2969       H  0.77612899  0.31626883  0.40192744     0.12500
H2970       H  0.67212770  0.23445266  0.41563361     0.14400
Zn2971     Zn  0.63752666  0.78151859  0.38467247     1.49700
Zn2972     Zn  0.71334488  0.85725005  0.38362439     1.49400
Zn2973     Zn  0.66322939  0.82963910  0.35985426     1.49100
Zn2974     Zn  0.63911331  0.85931160  0.38317466     1.49500
O2975       O  0.66314251  0.83188744  0.37816792    -1.84000
O2976       O  0.67007117  0.77330538  0.39664585    -0.74600
O2977       O  0.74874578  0.87603677  0.36862792    -0.74400
O2978       O  0.64694876  0.78032009  0.35348317    -0.73900
O2979       O  0.72291833  0.82404239  0.39451741    -0.74600
O2980       O  0.62170139  0.74371348  0.37017125    -0.74200
O2981       O  0.71094319  0.86046081  0.35238548    -0.74800
O2982       O  0.62040373  0.87454334  0.36758125    -0.74200
O2983       O  0.72306336  0.90040363  0.39458141    -0.75000
O2984       O  0.63242399  0.84627134  0.35203387    -0.74300
O2985       O  0.67333956  0.90428479  0.39314257    -0.74800
O2986       O  0.59743816  0.82797547  0.39508352    -0.74700
O2987       O  0.59415338  0.77362624  0.39495735    -0.74500
C2988       C  0.70340055  0.79238193  0.39928401     0.77300
C2989       C  0.74265380  0.87612577  0.35668773     0.77800
C2990       C  0.62955754  0.74862946  0.35824945     0.76700
C2991       C  0.61894068  0.86540821  0.35582704     0.77100
C2992       C  0.70515859  0.91622796  0.39729293     0.78200
C2993       C  0.58252220  0.79470904  0.39865325     0.77300
Zn2994     Zn  0.00516160  0.00848040  0.28226378     1.49700
Zn2995     Zn  0.52263722  0.97800660  0.25740608     1.49400
Zn2996     Zn  0.95202505  0.97989169  0.25911140     1.49100
Zn2997     Zn  0.52248453  0.55040744  0.25770008     1.49500
O2998       O  0.00269942  0.00495719  0.26404807    -1.84000
O2999       O  0.53405255  0.99085142  0.28822201    -0.74600
O3000       O  0.99093186  0.93208325  0.24869448    -0.74400
O3001       O  0.91842621  0.96131456  0.27457745    -0.73900
O3002       O  0.54297358  0.96182608  0.27219961    -0.74600
O3003       O  0.95828636  0.97959796  0.29025121    -0.74200
O3004       O  0.94174618  0.93714414  0.24771091    -0.74800
O3005       O  0.99316431  0.56699513  0.24933612    -0.74200
O3006       O  0.56275873  0.50607276  0.24600539    -0.75000
O3007       O  0.94032063  0.51555513  0.24916030    -0.74300
O3008       O  0.56522669  0.55997456  0.24693146    -0.74800
O3009       O  0.53926342  0.58482786  0.27313321    -0.74700
O3010       O  0.50941996  0.54516920  0.28863926    -0.74500
C3011       C  0.54646452  0.97124884  0.28396490     0.77300
C3012       C  0.95911856  0.92094674  0.24465553     0.77800
C3013       C  0.92611262  0.96316928  0.28643616     0.76700
C3014       C  0.96010587  0.54901168  0.24619793     0.77100
C3015       C  0.57732784  0.53963676  0.24288541     0.78200
C3016       C  0.52923217  0.57761770  0.28481180     0.77300
C3017       C  0.67196262  0.83773919  0.81286281     0.45600
H3018       H  0.67230158  0.83826979  0.82350941    -0.03400
C3019       C  0.67163762  0.83666878  0.78783671     0.45700
H3020       H  0.67159360  0.83567361  0.77720344    -0.03400
C3021       C  0.65413463  0.85842203  0.80670033    -0.17100
C3022       C  0.70995888  0.85550098  0.80666651    -0.16900
C3023       C  0.65185001  0.79880332  0.80703698    -0.17200
C3024       C  0.65340814  0.85684953  0.79345768    -0.17200
C3025       C  0.70924185  0.85492090  0.79353642    -0.16800
C3026       C  0.65200981  0.79882651  0.79385281    -0.17100
C3027       C  0.00017530  0.00220934  0.85706371     0.45600
H3028       H  0.99911916  0.00319334  0.86767721    -0.03400
C3029       C  0.00225724  0.00126427  0.83206064     0.45700
H3030       H  0.00295952  0.00071466  0.82141855    -0.03400
C3031       C  0.52090471  0.53968327  0.85074615    -0.17100
C3032       C  0.52036855  0.98144729  0.85176727    -0.16900
C3033       C  0.96322585  0.98059500  0.85092956    -0.17200
C3034       C  0.52099804  0.54000150  0.83756584    -0.17200
C3035       C  0.51968832  0.98070031  0.83862084    -0.16800
C3036       C  0.96383895  0.97987269  0.83779482    -0.17100
C3037       C  0.66357956  0.83287177  0.49737447     0.45600
H3038       H  0.66341431  0.83257389  0.48672607    -0.03400
C3039       C  0.66389155  0.83354462  0.52238044     0.45700
H3040       H  0.66381921  0.83403366  0.53302801    -0.03400
C3041       C  0.67919111  0.81004935  0.50344803    -0.17100
C3042       C  0.68604381  0.87157769  0.50324979    -0.16900
C3043       C  0.62573122  0.81744112  0.50356162    -0.17200
C3044       C  0.67927803  0.81075451  0.51669017    -0.17200
C3045       C  0.68576690  0.87137268  0.51643873    -0.16800
C3046       C  0.62649021  0.81786287  0.51673724    -0.17100
C3047       C  0.83277595  0.66750678  0.45185564     0.45600
H3048       H  0.83326848  0.66794662  0.44119110    -0.03400
C3049       C  0.83141326  0.66648932  0.47690514     0.45700
H3050       H  0.83078443  0.66603167  0.48755098    -0.03400
C3051       C  0.81417405  0.68690439  0.45765560    -0.17100
C3052       C  0.81311832  0.62919934  0.45749935    -0.16900
C3053       C  0.86999419  0.68569811  0.45781854    -0.17200
C3054       C  0.81305370  0.68672800  0.47081103    -0.17200
C3055       C  0.81191001  0.62800338  0.47066376    -0.16800
C3056       C  0.87001154  0.68523137  0.47099269    -0.17100
Zn3057     Zn  0.80966181  0.61651552  0.60354045     1.49700
Zn3058     Zn  0.80578373  0.69073196  0.60338140     1.49400
Zn3059     Zn  0.88227238  0.69356347  0.60314850     1.49100
Zn3060     Zn  0.83093971  0.66628525  0.57866456     1.49500
O3061       O  0.83221356  0.66681245  0.59725813    -1.84000
O3062       O  0.76643124  0.60494880  0.61447697    -0.74600
O3063       O  0.83696355  0.73274771  0.61503557    -0.74400
O3064       O  0.89477168  0.66197210  0.61424141    -0.73900
O3065       O  0.76457899  0.65654013  0.61443719    -0.74600
O3066       O  0.84329808  0.60966788  0.61506946    -0.74200
O3067       O  0.88953815  0.73438420  0.61481381    -0.74800
O3068       O  0.88065755  0.69114469  0.57139565    -0.74200
O3069       O  0.78568314  0.70733635  0.58887945    -0.75000
O3070       O  0.91698319  0.71402186  0.58817736    -0.74300
O3071       O  0.80522586  0.69126480  0.57167788    -0.74800
O3072       O  0.80563507  0.61535322  0.57192032    -0.74700
O3073       O  0.79404519  0.57995005  0.58903939    -0.74500
C3074       C  0.75244057  0.62386454  0.61820861     0.77300
C3075       C  0.86915423  0.74609234  0.61896097     0.77800
C3076       C  0.87577464  0.62965177  0.61855497     0.76700
C3077       C  0.91194225  0.70948523  0.57612420     0.77100
C3078       C  0.78807487  0.70555246  0.57673688     0.78200
C3079       C  0.79323708  0.58396904  0.57696145     0.77300
Zn3080     Zn  0.52664513  0.97616595  0.70810865     1.49700
Zn3081     Zn  0.95421477  0.98149763  0.70731416     1.49400
Zn3082     Zn  0.49916936  0.49990616  0.73218911     1.49100
Zn3083     Zn  0.52840670  0.55271740  0.70763263     1.49500
O3084       O  0.50136840  0.50170764  0.71355488    -1.84000
O3085       O  0.99380729  0.93572665  0.69596632    -0.74600
O3086       O  0.91723128  0.96344390  0.72159208    -0.74400
O3087       O  0.52623887  0.97768217  0.73978964    -0.73900
O3088       O  0.94399639  0.93954285  0.69579454    -0.74600
O3089       O  0.54368998  0.95807607  0.72294685    -0.74200
O3090       O  0.95075348  0.97201931  0.73878541    -0.74800
O3091       O  0.54765580  0.58773215  0.72278500    -0.74200
O3092       O  0.94836748  0.51271183  0.69605966    -0.75000
O3093       O  0.52400185  0.55047370  0.73953896    -0.74300
O3094       O  0.00033635  0.56455103  0.69595307    -0.74800
O3095       O  0.56995545  0.55991098  0.69657348    -0.74700
O3096       O  0.56767924  0.50624618  0.69673849    -0.74500
C3097       C  0.96210593  0.92490142  0.69193953     0.77300
C3098       C  0.92028826  0.96011631  0.73358123     0.77800
C3099       C  0.54182308  0.96148833  0.73502496     0.76700
C3100       C  0.54278422  0.58236248  0.73485577     0.77100
C3101       C  0.96827858  0.54499274  0.69192706     0.78200
C3102       C  0.58169101  0.53903198  0.69282183     0.77300
C3103       C  0.83176160  0.66665638  0.16599924     0.45600
H3104       H  0.83232399  0.66653889  0.15535329    -0.03400
C3105       C  0.83043461  0.66702477  0.19106455     0.45700
H3106       H  0.82977116  0.66708916  0.20172932    -0.03400
C3107       C  0.79333670  0.64879573  0.17189396    -0.17100
C3108       C  0.84961126  0.64631129  0.17233810    -0.16900
C3109       C  0.85160388  0.70536936  0.17201247    -0.17200
C3110       C  0.79335271  0.64903726  0.18503826    -0.17200
C3111       C  0.84861719  0.64695930  0.18548193    -0.16800
C3112       C  0.85046955  0.70499353  0.18519967    -0.17100
C3113       C  0.00244242  0.50396681  0.12026877     0.45600
H3114       H  0.00272142  0.50449872  0.10960157    -0.03400
C3115       C  0.50048700  0.50267077  0.14621436     0.45700
H3116       H  0.49961696  0.50196539  0.15685674    -0.03400
C3117       C  0.98417702  0.52338791  0.12624448    -0.17100
C3118       C  0.98174165  0.96453082  0.12443335    -0.16900
C3119       C  0.53941637  0.52149484  0.12723592    -0.17200
C3120       C  0.98373588  0.52350579  0.13939023    -0.17200
C3121       C  0.97879569  0.96150844  0.13755091    -0.16800
C3122       C  0.53915081  0.52108612  0.14040606    -0.17100
Zn3123     Zn  0.64231595  0.85789590  0.93673034     1.49700
Zn3124     Zn  0.71914423  0.86092268  0.93715946     1.49400
Zn3125     Zn  0.64559512  0.78448889  0.93730102     1.49100
Zn3126     Zn  0.67076033  0.83453466  0.91250339     1.49500
O3127       O  0.66954217  0.83458828  0.93102162    -1.84000
O3128       O  0.67336203  0.90029072  0.94808536    -0.74600
O3129       O  0.72725129  0.83012391  0.94990273    -0.74400
O3130       O  0.60471141  0.77464660  0.94907732    -0.73900
O3131       O  0.72741152  0.90505613  0.94719701    -0.74600
O3132       O  0.60006220  0.82457963  0.94771889    -0.74200
O3133       O  0.67827800  0.77563341  0.94840327    -0.74800
O3134       O  0.64716567  0.78405602  0.90559805    -0.74200
O3135       O  0.75589266  0.87604092  0.92264784    -0.75000
O3136       O  0.62696969  0.74833979  0.92281403    -0.74300
O3137       O  0.72027754  0.86019592  0.90566492    -0.74800
O3138       O  0.64638212  0.85966058  0.90507568    -0.74700
O3139       O  0.62429897  0.87469436  0.92186494    -0.74500
C3140       C  0.70620664  0.91571073  0.95140336     0.77300
C3141       C  0.70877031  0.79687064  0.95329974     0.77800
C3142       C  0.58974787  0.79299168  0.95227383     0.76700
C3143       C  0.63040581  0.75262851  0.91070304     0.77100
C3144       C  0.75135269  0.87463110  0.91054627     0.78200
C3145       C  0.62881067  0.87380235  0.90981924     0.77300
Zn3146     Zn  0.83062682  0.66499209  0.02841014     1.49700
Zn3147     Zn  0.88248498  0.68974116  0.05164614     1.49400
Zn3148     Zn  0.80794739  0.69180408  0.05276732     1.49100
Zn3149     Zn  0.80640862  0.61529647  0.05275172     1.49500
O3150       O  0.83191778  0.66556446  0.04670627    -1.84000
O3151       O  0.87788239  0.69836359  0.02071976    -0.74600
O3152       O  0.89353079  0.73335664  0.06255568    -0.74400
O3153       O  0.78753984  0.70740582  0.03810997    -0.73900
O3154       O  0.91666916  0.70788369  0.03624959    -0.74600
O3155       O  0.79686554  0.67974822  0.02162385    -0.74200
O3156       O  0.84314545  0.73640178  0.06220373    -0.74800
O3157       O  0.76382842  0.60616978  0.06342444    -0.74200
O3158       O  0.89207179  0.65597556  0.06229100    -0.75000
O3159       O  0.76732331  0.66035441  0.06496336    -0.74300
O3160       O  0.83875565  0.60570128  0.06393648    -0.74800
O3161       O  0.78999857  0.57904935  0.03817012    -0.74700
O3162       O  0.81605285  0.61616900  0.02161867    -0.74500
C3163       C  0.90986800  0.71128460  0.02461289     0.77300
C3164       C  0.87562496  0.74893989  0.06562676     0.77800
C3165       C  0.78394931  0.69855154  0.02630516     0.76700
C3166       C  0.75238668  0.62663591  0.06787262     0.77100
C3167       C  0.87199440  0.62395489  0.06669102     0.78200
C3168       C  0.79836908  0.58439273  0.02633135     0.77300
C3169       C  0.72163240  0.78305253  0.96378643    -0.01100
C3170       C  0.74534018  0.80714567  0.97293772    -0.09200
C3171       C  0.75374538  0.79398959  0.98387052    -0.18000
C3172       C  0.73904566  0.75613928  0.98585641     0.04400
C3173       C  0.71690825  0.73198407  0.97611704     0.18600
C3174       C  0.70773592  0.74550465  0.96538847    -0.19400
C3175       C  0.70433229  0.69453362  0.97709080    -0.20700
C3176       C  0.71426897  0.68068034  0.98737429    -0.19200
C3177       C  0.73531883  0.70370417  0.99724962     0.20000
C3178       C  0.74652617  0.74147755  0.99694482     0.02100
C3179       C  0.76475620  0.76287507  0.00774541    -0.14000
C3180       C  0.77433479  0.74797712  0.01789414    -0.11700
C3181       C  0.76642471  0.71167942  0.01744045     0.01600
C3182       C  0.74601050  0.68939026  0.00730778    -0.23900
H3183       H  0.75650333  0.83630653  0.97187535     0.09600
H3184       H  0.77223828  0.81404961  0.99050144     0.13200
H3185       H  0.68975517  0.72673199  0.95824491     0.11900
H3186       H  0.68758317  0.67599719  0.96966674     0.13100
H3187       H  0.70525076  0.65175043  0.98764856     0.12100
H3188       H  0.77209528  0.79118490  0.00856099     0.09200
H3189       H  0.78984853  0.76545275  0.02573850     0.12500
H3190       H  0.73932764  0.66102849  0.00709080     0.14400
C3191       C  0.71926302  0.94456295  0.96121589    -0.01100
C3192       C  0.69511946  0.94486864  0.97025261    -0.09200
C3193       C  0.70750646  0.96758989  0.98093226    -0.18000
C3194       C  0.74462075  0.99122547  0.98278962     0.04400
C3195       C  0.76876204  0.99305022  0.97302942     0.18600
C3196       C  0.75603341  0.96922619  0.96252244    -0.19400
C3197       C  0.80542158  0.01846361  0.97387453    -0.20700
C3198       C  0.82050452  0.53206637  0.98800781    -0.19200
C3199       C  0.79667717  0.53059767  0.99752895     0.20000
C3200       C  0.75935353  0.50542046  0.99657796     0.02100
C3201       C  0.73683386  0.50260409  0.00700892    -0.14000
C3202       C  0.75033020  0.52651206  0.01735397    -0.11700
C3203       C  0.78634756  0.55375711  0.01748247     0.01600
C3204       C  0.80969226  0.55493391  0.00782719    -0.23900
H3205       H  0.66653430  0.92623968  0.96938785     0.09600
H3206       H  0.68743212  0.96625605  0.98752910     0.13200
H3207       H  0.77479926  0.96956914  0.95542859     0.11900
H3208       H  0.82394655  0.02023814  0.96641867     0.13100
H3209       H  0.84908249  0.55091613  0.98878579     0.12100
H3210       H  0.70868734  0.48248170  0.00737011     0.09200
H3211       H  0.73211539  0.52516582  0.02485644     0.12500
H3212       H  0.83781996  0.57577954  0.00811362     0.14400
C3213       C  0.56132699  0.77833609  0.96208885    -0.01100
C3214       C  0.53231871  0.78454466  0.96131245    -0.09200
C3215       C  0.50722601  0.77377139  0.97126052    -0.18000
C3216       C  0.51112652  0.75735028  0.98251697     0.04400
C3217       C  0.54051439  0.75075559  0.98313938     0.18600
C3218       C  0.56493535  0.76079596  0.97288782    -0.19400
C3219       C  0.54576882  0.73483876  0.99407632    -0.20700
C3220       C  0.01952773  0.72592868  0.00423864    -0.19200
C3221       C  0.99163589  0.73405086  0.00439540     0.20000
C3222       C  0.98605216  0.75135760  0.99364121     0.02100
C3223       C  0.95742780  0.75883999  0.99426875    -0.14000
C3224       C  0.93406197  0.74751313  0.00473525    -0.11700
C3225       C  0.93879680  0.72914532  0.01503508     0.01600
C3226       C  0.96838721  0.72367602  0.01505505    -0.23900
H3227       H  0.52917632  0.79802091  0.95299315     0.09600
H3228       H  0.48553952  0.77931904  0.96990581     0.13200
H3229       H  0.58774643  0.75640626  0.97354845     0.11900
H3230       H  0.56822415  0.72988298  0.99460678     0.13100
H3231       H  0.02398792  0.71282121  0.01239085     0.12100
H3232       H  0.95160884  0.77233396  0.98667543     0.09200
H3233       H  0.91140575  0.75220400  0.00460727     0.12500
H3234       H  0.97193980  0.70919736  0.02298120     0.14400
C3235       C  0.96650968  0.93367146  0.11543373    -0.01100
C3236       C  0.94095073  0.93061036  0.10656966    -0.09200
C3237       C  0.92608801  0.90156727  0.09799639    -0.18000
C3238       C  0.93693192  0.87491554  0.09796282     0.04400
C3239       C  0.96351254  0.87874462  0.10691229     0.18600
C3240       C  0.97798305  0.90798792  0.11554908    -0.19400
C3241       C  0.97534656  0.85330057  0.10723261    -0.20700
C3242       C  0.96106763  0.82374806  0.09891938    -0.19200
C3243       C  0.93459450  0.81894850  0.09010894     0.20000
C3244       C  0.92221321  0.84452515  0.08945614     0.02100
C3245       C  0.89531805  0.83829751  0.08041447    -0.14000
C3246       C  0.88064393  0.80746637  0.07264940    -0.11700
C3247       C  0.89263269  0.78221648  0.07345812     0.01600
C3248       C  0.92001402  0.78836208  0.08205147    -0.23900
H3249       H  0.93210466  0.95059175  0.10641088     0.09600
H3250       H  0.90621970  0.90083979  0.09155421     0.13200
H3251       H  0.48896071  0.90475463  0.12619270     0.11900
H3252       H  0.48088617  0.84653276  0.11945378     0.13100
H3253       H  0.97059772  0.80434594  0.09945363     0.12100
H3254       H  0.88466436  0.85641361  0.07918336     0.09200
H3255       H  0.85974884  0.80336582  0.06594916     0.12500
H3256       H  0.92925765  0.76873503  0.08273544     0.14400
C3257       C  0.88749761  0.60789135  0.07537647    -0.01100
C3258       C  0.86510837  0.57624448  0.08236774    -0.09200
C3259       C  0.87950223  0.56174282  0.09096252    -0.18000
C3260       C  0.91702369  0.57841036  0.09277941     0.04400
C3261       C  0.93963901  0.60999446  0.08541084     0.18600
C3262       C  0.92476335  0.62454062  0.07693430    -0.19400
C3263       C  0.97700685  0.62683371  0.08648556    -0.20700
C3264       C  0.99255676  0.61270815  0.09463362    -0.19200
C3265       C  0.97107759  0.58192614  0.10211437     0.20000
C3266       C  0.93295848  0.56468745  0.10150510     0.02100
C3267       C  0.91253937  0.53458331  0.10970003    -0.14000
C3268       C  0.92934668  0.52176876  0.11790849    -0.11700
C3269       C  0.96671774  0.53834936  0.11811633     0.01600
C3270       C  0.98752073  0.56822740  0.11022664    -0.23900
H3271       H  0.83620666  0.56277944  0.08131809     0.09600
H3272       H  0.86053808  0.53729341  0.09593860     0.13200
H3273       H  0.94236076  0.64885439  0.07147472     0.11900
H3274       H  0.99435515  0.65088463  0.08087310     0.13100
H3275       H  0.02159223  0.62607385  0.09514195     0.12100
H3276       H  0.88362517  0.52051527  0.11006672     0.09200
H3277       H  0.91313614  0.49845955  0.12400262     0.12500
H3278       H  0.01656916  0.58093145  0.11051125     0.14400
C3279       C  0.57184803  0.53606581  0.11909552    -0.01100
C3280       C  0.57478253  0.51321464  0.11009375    -0.09200
C3281       C  0.60413474  0.52653424  0.10179741    -0.18000
C3282       C  0.63140731  0.56356420  0.10218736     0.04400
C3283       C  0.62805360  0.58670077  0.11135923     0.18600
C3284       C  0.59848928  0.57273118  0.11975917    -0.19400
C3285       C  0.65381765  0.62373815  0.11190643    -0.20700
C3286       C  0.68259170  0.63855655  0.10334872    -0.19200
C3287       C  0.68662318  0.61654288  0.09419670     0.20000
C3288       C  0.66145782  0.57858019  0.09364542     0.02100
C3289       C  0.66749627  0.55728184  0.08456446    -0.14000
C3290       C  0.69694953  0.57309346  0.07628773    -0.11700
C3291       C  0.72114811  0.61060186  0.07664057     0.01600
C3292       C  0.71582538  0.63223697  0.08561029    -0.23900
H3293       H  0.55408903  0.48482466  0.10945476     0.09600
H3294       H  0.60423703  0.50726590  0.09505456     0.13200
H3295       H  0.59564179  0.59054450  0.12658313     0.11900
H3296       H  0.65142382  0.64147750  0.11888518     0.13100
H3297       H  0.70185452  0.66743830  0.10390051     0.12100
H3298       H  0.65024559  0.52827129  0.08367316     0.09200
H3299       H  0.70062693  0.55580071  0.06947758     0.12500
H3300       H  0.73482627  0.66122321  0.08607383     0.14400
C3301       C  0.86588878  0.62697992  0.16546341    -0.01100
C3302       C  0.85143881  0.58946119  0.16742807    -0.09200
C3303       C  0.87046062  0.57182194  0.16386940    -0.18000
C3304       C  0.90495130  0.59126517  0.15818769     0.04400
C3305       C  0.91863668  0.62896499  0.15550274     0.18600
C3306       C  0.89918622  0.64647321  0.15921921    -0.19400
C3307       C  0.95194222  0.64903521  0.14933600    -0.20700
C3308       C  0.97171459  0.63245540  0.14563271    -0.19200
C3309       C  0.95930743  0.59561425  0.14836249     0.20000
C3310       C  0.92617309  0.57464590  0.15496270     0.02100
C3311       C  0.91586164  0.53800837  0.15803392    -0.14000
C3312       C  0.93627308  0.52221471  0.15390256    -0.11700
C3313       C  0.96751025  0.54232481  0.14663160     0.01600
C3314       C  0.97944642  0.57935316  0.14425180    -0.23900
H3315       H  0.82584175  0.57399270  0.17231434     0.09600
H3316       H  0.85762696  0.54299027  0.16581160     0.13200
H3317       H  0.91072658  0.67561060  0.15782969     0.11900
H3318       H  0.96261354  0.67770917  0.14722607     0.13100
H3319       H  0.49658138  0.64910146  0.14107825     0.12100
H3320       H  0.89183838  0.52071273  0.16344910     0.09200
H3321       H  0.92634015  0.99212023  0.15565299     0.12500
H3322       H  0.50364639  0.59568889  0.13958343     0.14400
C3323       C  0.95770745  0.92524268  0.14390437    -0.01100
C3324       C  0.92224832  0.90153930  0.14006033    -0.09200
C3325       C  0.90437094  0.86477461  0.14362701    -0.18000
C3326       C  0.92131376  0.85037841  0.15137046     0.04400
C3327       C  0.95681978  0.87491488  0.15566790     0.18600
C3328       C  0.97454050  0.91192877  0.15195435    -0.19400
C3329       C  0.97474894  0.86221244  0.16344921    -0.20700
C3330       C  0.95820441  0.82583291  0.16717410    -0.19200
C3331       C  0.92329983  0.80108926  0.16319151     0.20000
C3332       C  0.90432317  0.81274348  0.15512397     0.02100
C3333       C  0.86905792  0.78626408  0.15138951    -0.14000
C3334       C  0.85270241  0.75048393  0.15615745    -0.11700
C3335       C  0.87104900  0.73998025  0.16463019     0.01600
C3336       C  0.90681315  0.76498312  0.16765309    -0.23900
H3337       H  0.90876964  0.91128894  0.13378337     0.09600
H3338       H  0.87750382  0.84823666  0.14003882     0.13200
H3339       H  0.50435794  0.93058959  0.15508180     0.11900
H3340       H  0.50370195  0.88007400  0.16634376     0.13100
H3341       H  0.97272994  0.81705041  0.17334642     0.12100
H3342       H  0.85307016  0.79265656  0.14511449     0.09200
H3343       H  0.82500897  0.73152051  0.15374757     0.12500
H3344       H  0.92119232  0.75673122  0.17412898     0.14400
C3345       C  0.75899848  0.63462389  0.16468423    -0.01100
C3346       C  0.73796946  0.65123573  0.16651402    -0.09200
C3347       C  0.70163659  0.63344729  0.16312489    -0.18000
C3348       C  0.68486040  0.59802304  0.15778778     0.04400
C3349       C  0.70688307  0.58219360  0.15523893     0.18600
C3350       C  0.74355251  0.60053904  0.15867638    -0.19400
C3351       C  0.69187084  0.54756272  0.14967360    -0.20700
C3352       C  0.65552116  0.52816231  0.14665011    -0.19200
C3353       C  0.63297249  0.54257740  0.14926505     0.20000
C3354       C  0.64712827  0.57761239  0.15496083     0.02100
C3355       C  0.62279916  0.59048092  0.15753873    -0.14000
C3356       C  0.58655717  0.57029633  0.15393802    -0.11700
C3357       C  0.57336216  0.53669491  0.14774065     0.01600
C3358       C  0.59650545  0.52253781  0.14582116    -0.23900
H3359       H  0.74930746  0.67738756  0.17130358     0.09600
H3360       H  0.68715569  0.64772516  0.16510536     0.13200
H3361       H  0.75947520  0.58726210  0.15745358     0.11900
H3362       H  0.70837691  0.53531207  0.14766276     0.13100
H3363       H  0.64491646  0.50153999  0.14225432     0.12100
H3364       H  0.63120061  0.61647096  0.16202467     0.09200
H3365       H  0.56932275  0.58203817  0.15526751     0.12500
H3366       H  0.58648894  0.49673267  0.14085371     0.14400
C3367       C  0.95396944  0.55846107  0.68165138    -0.01100
C3368       C  0.91950985  0.53523439  0.67683442    -0.09200
C3369       C  0.90642606  0.54523758  0.66634048    -0.18000
C3370       C  0.92735420  0.57919481  0.66018925     0.04400
C3371       C  0.96217277  0.60303104  0.66513935     0.18600
C3372       C  0.97511674  0.59256362  0.67578642    -0.19400
C3373       C  0.98393885  0.63696224  0.65933266    -0.20700
C3374       C  0.97178356  0.64785080  0.64878055    -0.19200
C3375       C  0.93750658  0.62512330  0.64376142     0.20000
C3376       C  0.91488870  0.59034715  0.64935233     0.02100
C3377       C  0.88058338  0.56837841  0.64392607    -0.14000
C3378       C  0.86883883  0.58079336  0.63368114    -0.11700
C3379       C  0.89069943  0.61546838  0.62838180     0.01600
C3380       C  0.92536747  0.63726772  0.63335042    -0.23900
H3381       H  0.90255643  0.50859433  0.68103738     0.09600
H3382       H  0.87982569  0.52548549  0.66324568     0.13200
H3383       H  0.00194180  0.61069018  0.67932717     0.11900
H3384       H  0.01055211  0.65527543  0.66299774     0.13100
H3385       H  0.98923692  0.67438126  0.64457170     0.12100
H3386       H  0.86179631  0.54158534  0.64747699     0.09200
H3387       H  0.84196228  0.56328334  0.63009808     0.12500
H3388       H  0.94259314  0.66418366  0.62937035     0.14400
C3389       C  0.94659766  0.89614322  0.68203160    -0.01100
C3390       C  0.91108125  0.88255856  0.67802596    -0.09200
C3391       C  0.89722419  0.85815275  0.66782438    -0.18000
C3392       C  0.91866464  0.84663769  0.66116384     0.04400
C3393       C  0.95460384  0.86025609  0.66533558     0.18600
C3394       C  0.96805405  0.88445313  0.67572676    -0.19400
C3395       C  0.97718394  0.85022317  0.65896148    -0.20700
C3396       C  0.96491825  0.82706287  0.64844358    -0.19200
C3397       C  0.92968472  0.81312375  0.64410833     0.20000
C3398       C  0.90592331  0.82248071  0.65044263     0.02100
C3399       C  0.87044827  0.80714674  0.64577383    -0.14000
C3400       C  0.85907957  0.78346959  0.63531778    -0.11700
C3401       C  0.88253138  0.77420327  0.62913812     0.01600
C3402       C  0.91793394  0.78943050  0.63355218    -0.23900
H3403       H  0.89394783  0.89128577  0.68266359     0.09600
H3404       H  0.86982676  0.84935611  0.66526743     0.13200
H3405       H  0.99570729  0.89507533  0.67863921     0.11900
H3406       H  0.00462214  0.86057736  0.66207491     0.13100
H3407       H  0.98312103  0.81991828  0.64368292     0.12100
H3408       H  0.85060657  0.81244520  0.65008281     0.09200
H3409       H  0.83144763  0.77172713  0.63224940     0.12500
H3410       H  0.93630123  0.78224966  0.62893392     0.14400
C3411       C  0.72316934  0.60862504  0.62783809    -0.01100
C3412       C  0.70848564  0.57250199  0.63201815    -0.09200
C3413       C  0.68527287  0.55988286  0.64256661    -0.18000
C3414       C  0.67636885  0.58332663  0.64938492     0.04400
C3415       C  0.68945931  0.61919425  0.64456408     0.18600
C3416       C  0.71244696  0.63138165  0.63388353    -0.19400
C3417       C  0.68033877  0.64308172  0.65062529    -0.20700
C3418       C  0.65859750  0.63218741  0.66148451    -0.19200
C3419       C  0.64599008  0.59738174  0.66666301     0.20000
C3420       C  0.65507143  0.57258365  0.66080612     0.02100
C3421       C  0.64279230  0.53832240  0.66673907    -0.14000
C3422       C  0.62069314  0.52835963  0.67757530    -0.11700
C3423       C  0.61016957  0.55214148  0.68288447     0.01600
C3424       C  0.62379342  0.58702166  0.67756769    -0.23900
H3425       H  0.71579830  0.55414508  0.62736424     0.09600
H3426       H  0.67516472  0.53182883  0.64524211     0.13200
H3427       H  0.72326923  0.65928704  0.63064558     0.11900
H3428       H  0.69013981  0.67041547  0.64695317     0.13100
H3429       H  0.65179729  0.65122452  0.66591686     0.12100
H3430       H  0.64954922  0.51849783  0.66319381     0.09200
H3431       H  0.61084372  0.50134713  0.68154362     0.12500
H3432       H  0.61611384  0.60581644  0.68164349     0.14400
C3433       C  0.77754852  0.55179941  0.56848614    -0.01100
C3434       C  0.77722383  0.51971096  0.57202561    -0.09200
C3435       C  0.76366635  0.48989316  0.56370969    -0.18000
C3436       C  0.74694190  0.99183664  0.55147392     0.04400
C3437       C  0.74835584  0.52325969  0.54838153     0.18600
C3438       C  0.76298740  0.55332374  0.55666315    -0.19400
C3439       C  0.73242401  0.52509169  0.53693843    -0.20700
C3440       C  0.71151940  0.99464755  0.52912190    -0.19200
C3441       C  0.71485794  0.96387926  0.53150215     0.20000
C3442       C  0.73339720  0.96240786  0.54254978     0.02100
C3443       C  0.73780511  0.93164783  0.54413204    -0.14000
C3444       C  0.72330707  0.90304603  0.53536675    -0.11700
C3445       C  0.70380877  0.90392400  0.52481444     0.01600
C3446       C  0.69959130  0.93441107  0.52293499    -0.23900
H3447       H  0.78806967  0.51787222  0.58117188     0.09600
H3448       H  0.76494473  0.96800921  0.56636459     0.13200
H3449       H  0.76248704  0.57786280  0.55398188     0.11900
H3450       H  0.73146106  0.54948064  0.53443691     0.13100
H3451       H  0.69766755  0.99606617  0.52066881     0.12100
H3452       H  0.75266406  0.92903141  0.55195645     0.09200
H3453       H  0.72714622  0.87984695  0.53690209     0.12500
H3454       H  0.68378712  0.93492455  0.51496092     0.14400
C3455       C  0.59438072  0.80231510  0.52517443    -0.01100
C3456       C  0.56670994  0.76657837  0.52329291    -0.09200
C3457       C  0.53666684  0.75133783  0.53126802    -0.18000
C3458       C  0.53372235  0.77124136  0.54166751     0.04400
C3459       C  0.56249244  0.80721422  0.54379610     0.18600
C3460       C  0.59238695  0.82245461  0.53550960    -0.19400
C3461       C  0.56138128  0.82749516  0.55424966    -0.20700
C3462       C  0.03034149  0.80960264  0.56270464    -0.19200
C3463       C  0.00165804  0.77428531  0.56077104     0.20000
C3464       C  0.50363157  0.75638772  0.55017468     0.02100
C3465       C  0.47326656  0.72157173  0.54834803    -0.14000
C3466       C  0.94221941  0.70525017  0.55645542    -0.11700
C3467       C  0.94287104  0.72504525  0.56730195     0.01600
C3468       C  0.97258587  0.75959828  0.56943489    -0.23900
H3469       H  0.56856281  0.75006504  0.51570321     0.09600
H3470       H  0.51670162  0.72358988  0.52919206     0.13200
H3471       H  0.61420683  0.84998922  0.53709844     0.11900
H3472       H  0.58321760  0.85493109  0.55592850     0.13100
H3473       H  0.03020556  0.82576252  0.57076592     0.12100
H3474       H  0.47046921  0.70440971  0.54028699     0.09200
H3475       H  0.91923603  0.67864700  0.55459025     0.12500
H3476       H  0.97270125  0.77531342  0.57768770     0.14400
C3477       C  0.77059991  0.72006116  0.56821444    -0.01100
C3478       C  0.74035330  0.72192401  0.57227826    -0.09200
C3479       C  0.72337502  0.73468240  0.56402133    -0.18000
C3480       C  0.73674048  0.74679442  0.55146990     0.04400
C3481       C  0.76795368  0.74559830  0.54754837     0.18600
C3482       C  0.78398035  0.73164378  0.55578428    -0.19400
C3483       C  0.78347725  0.75897279  0.53550750    -0.20700
C3484       C  0.76940195  0.77472354  0.52740598    -0.19200
C3485       C  0.73860676  0.77614766  0.53092927     0.20000
C3486       C  0.72099249  0.76098520  0.54278546     0.02100
C3487       C  0.68850911  0.76080795  0.54538505    -0.14000
C3488       C  0.67471992  0.77583440  0.53669378    -0.11700
C3489       C  0.69315177  0.79235429  0.52530044     0.01600
C3490       C  0.72548072  0.79290356  0.52265123    -0.23900
H3491       H  0.72947430  0.71301875  0.58183239     0.09600
H3492       H  0.70035724  0.73551713  0.56781975     0.13200
H3493       H  0.80759976  0.73063955  0.55260084     0.11900
H3494       H  0.80723812  0.75807957  0.53246198     0.13100
H3495       H  0.78254680  0.78562901  0.51826650     0.12100
H3496       H  0.67284625  0.74867072  0.55393891     0.09200
H3497       H  0.64944008  0.77458340  0.53894524     0.12500
H3498       H  0.74102519  0.80697796  0.51424852     0.14400
C3499       C  0.70680637  0.90604703  0.49578074    -0.01100
C3500       C  0.74388683  0.92749644  0.49772505    -0.09200
C3501       C  0.76264204  0.96404093  0.49385338    -0.18000
C3502       C  0.74474266  0.98060102  0.48793127     0.04400
C3503       C  0.70759417  0.95794568  0.48510904     0.18600
C3504       C  0.68907133  0.92098852  0.48897788    -0.19400
C3505       C  0.68887960  0.97268761  0.47886297    -0.20700
C3506       C  0.70470765  0.50706688  0.47535145    -0.19200
C3507       C  0.74039968  0.53119335  0.47873282     0.20000
C3508       C  0.76042975  0.51831512  0.48559983     0.02100
C3509       C  0.79602656  0.54426945  0.48915335    -0.14000
C3510       C  0.81180004  0.58080942  0.48522791    -0.11700
C3511       C  0.79265072  0.59266878  0.47773781     0.01600
C3512       C  0.75650174  0.56799877  0.47496322    -0.23900
H3513       H  0.75806513  0.91640189  0.50295053     0.09600
H3514       H  0.79094672  0.97888614  0.49592758     0.13200
H3515       H  0.66032982  0.90460751  0.48752589     0.11900
H3516       H  0.66066269  0.95569397  0.47662219     0.13100
H3517       H  0.68930322  0.51670921  0.47009941     0.12100
H3518       H  0.81256973  0.53698418  0.49474642     0.09200
H3519       H  0.83973955  0.59938291  0.48743325     0.12500
H3520       H  0.74149185  0.57714155  0.46920419     0.14400
C3521       C  0.59124286  0.80332229  0.49645232    -0.01100
C3522       C  0.56895186  0.81815527  0.49899988    -0.09200
C3523       C  0.53256330  0.79942156  0.49570499    -0.18000
C3524       C  0.51709760  0.76491637  0.48969983     0.04400
C3525       C  0.54048885  0.75133396  0.48623285     0.18600
C3526       C  0.57718871  0.77059610  0.48959225    -0.19400
C3527       C  0.52683970  0.71800391  0.47980010    -0.20700
C3528       C  0.49056882  0.69786665  0.47671353    -0.19200
C3529       C  0.96481529  0.70821518  0.47969185     0.20000
C3530       C  0.97766975  0.74184966  0.48629308     0.02100
C3531       C  0.95230574  0.75304050  0.48939506    -0.14000
C3532       C  0.91635459  0.73280590  0.48542972    -0.11700
C3533       C  0.90444155  0.70082284  0.47829518     0.01600
C3534       C  0.92862358  0.68812889  0.47583972    -0.23900
H3535       H  0.57933033  0.84343977  0.50430555     0.09600
H3536       H  0.51703722  0.81224323  0.49823184     0.13200
H3537       H  0.59420295  0.75883188  0.48769415     0.11900
H3538       H  0.54439182  0.70745421  0.47709298     0.13100
H3539       H  0.48104773  0.67243468  0.47156247     0.12100
H3540       H  0.95965925  0.77778438  0.49460945     0.09200
H3541       H  0.89833437  0.74337172  0.48727506     0.12500
H3542       H  0.91961348  0.66347081  0.47023766     0.14400
C3543       C  0.79511336  0.70420949  0.47787437    -0.01100
C3544       C  0.76137180  0.68276682  0.48359537    -0.09200
C3545       C  0.73989700  0.69799779  0.48711265    -0.18000
C3546       C  0.75155361  0.73541621  0.48494693     0.04400
C3547       C  0.78629511  0.75713117  0.47946558     0.18600
C3548       C  0.80762607  0.74154272  0.47612368    -0.19400
C3549       C  0.79929382  0.79418311  0.47701798    -0.20700
C3550       C  0.77883275  0.81045366  0.48003905    -0.19200
C3551       C  0.74473100  0.79018421  0.48560700     0.20000
C3552       C  0.73033576  0.75224214  0.48804022     0.02100
C3553       C  0.69574465  0.73320908  0.49372160    -0.14000
C3554       C  0.67766668  0.75160259  0.49769595    -0.11700
C3555       C  0.69299846  0.78934856  0.49594644     0.01600
C3556       C  0.72573316  0.80811816  0.48932475    -0.23900
H3557       H  0.75070030  0.65367836  0.48466491     0.09600
H3558       H  0.71393327  0.67964565  0.49120489     0.13200
H3559       H  0.83338141  0.75810273  0.47142679     0.11900
H3560       H  0.82564367  0.81081494  0.47276019     0.13100
H3561       H  0.79002879  0.83932207  0.47816289     0.12100
H3562       H  0.68263752  0.70438080  0.49569307     0.09200
H3563       H  0.65243035  0.73663232  0.50283996     0.12500
H3564       H  0.73791764  0.83738322  0.48809011     0.14400
C3565       C  0.93017058  0.96324562  0.85883332    -0.01100
C3566       C  0.90365206  0.97291899  0.85726417    -0.09200
C3567       C  0.87320236  0.95773087  0.86509769    -0.18000
C3568       C  0.86914274  0.93333439  0.87509706     0.04400
C3569       C  0.89673016  0.92444384  0.87680977     0.18600
C3570       C  0.92612473  0.93835637  0.86838715    -0.19400
C3571       C  0.89531487  0.90256974  0.88711416    -0.20700
C3572       C  0.86749527  0.89022801  0.89604185    -0.19200
C3573       C  0.83958456  0.89799307  0.89450758     0.20000
C3574       C  0.83933403  0.91844038  0.88371084     0.02100
C3575       C  0.80910194  0.92283835  0.88193747    -0.14000
C3576       C  0.78094579  0.90867000  0.89076006    -0.11700
C3577       C  0.78223594  0.89032836  0.90172634     0.01600
C3578       C  0.81158519  0.88502869  0.90359307    -0.23900
H3579       H  0.90682114  0.99283660  0.85010157     0.09600
H3580       H  0.85415530  0.96689194  0.86345907     0.13200
H3581       H  0.94594183  0.92987095  0.86929734     0.11900
H3582       H  0.91644651  0.89591852  0.88849592     0.13100
H3583       H  0.86761728  0.87419903  0.90412641     0.12100
H3584       H  0.80600294  0.93630002  0.87367039     0.09200
H3585       H  0.75799492  0.91226485  0.88903741     0.12500
H3586       H  0.81198552  0.86974371  0.91187731     0.14400
C3587       C  0.53736503  0.96534020  0.85977284    -0.01100
C3588       C  0.57354929  0.97560954  0.85808854    -0.09200
C3589       C  0.58935752  0.96037223  0.86571249    -0.18000
C3590       C  0.56950881  0.93519372  0.87555394     0.04400
C3591       C  0.53313515  0.92596466  0.87744506     0.18600
C3592       C  0.51726064  0.93996641  0.86924983    -0.19400
C3593       C  0.51304012  0.90334990  0.88762562    -0.20700
C3594       C  0.52866341  0.89037732  0.89623000    -0.19200
C3595       C  0.56412915  0.89817519  0.89443992     0.20000
C3596       C  0.58459801  0.91951817  0.88377978     0.02100
C3597       C  0.61906432  0.92378632  0.88171372    -0.14000
C3598       C  0.63306255  0.90859060  0.89016198    -0.11700
C3599       C  0.61359172  0.88953586  0.90103597     0.01600
C3600       C  0.57915877  0.88433812  0.90315002    -0.19700
H3601       H  0.59244171  0.50125602  0.85162599     0.09600
H3602       H  0.61743305  0.96979677  0.86398804     0.13200
H3603       H  0.00117642  0.95579479  0.87557969     0.11900
H3604       H  0.00178841  0.92918149  0.89554487     0.13100
H3605       H  0.51275981  0.87371045  0.90422726     0.12100
H3606       H  0.63544923  0.93795912  0.87350498     0.09200
H3607       H  0.65950624  0.91217454  0.88828247     0.12500
H3608       H  0.56368177  0.86856748  0.91137874     0.14400
C3609       C  0.53594573  0.57222461  0.85912375    -0.01100
C3610       C  0.51570211  0.57264198  0.86961077    -0.09200
C3611       C  0.52994117  0.60149037  0.87824630    -0.18000
C3612       C  0.56498878  0.63125268  0.87653024     0.04400
C3613       C  0.58467029  0.63166920  0.86544997     0.18600
C3614       C  0.57052909  0.60173668  0.85711773    -0.19400
C3615       C  0.61832138  0.66188277  0.86279090    -0.20700
C3616       C  0.63294762  0.69174895  0.87097509    -0.19200
C3617       C  0.61492984  0.69134000  0.88226716     0.20000
C3618       C  0.58107117  0.66069749  0.88536616     0.02100
C3619       C  0.56518404  0.66044948  0.89732351    -0.14000
C3620       C  0.58180275  0.68992518  0.90567735    -0.11700
C3621       C  0.61424308  0.72066375  0.90227294     0.01600
C3622       C  0.63073460  0.72126635  0.89057750    -0.23900
H3623       H  0.98884631  0.55167606  0.87134787     0.09600
H3624       H  0.51260869  0.60000175  0.88602721     0.13200
H3625       H  0.58664079  0.60127228  0.84916242     0.11900
H3626       H  0.63320714  0.66259190  0.85425301     0.13100
H3627       H  0.65885063  0.71499337  0.86859638     0.12100
H3628       H  0.54032217  0.63761360  0.90061214     0.09200
H3629       H  0.56881697  0.68901582  0.91472359     0.12500
H3630       H  0.65624475  0.74489519  0.88804275     0.14400
C3631       C  0.88809276  0.94298613  0.74177058    -0.01100
C3632       C  0.86095502  0.95169295  0.74007962    -0.09200
C3633       C  0.83185486  0.93832966  0.74852370    -0.18000
C3634       C  0.82875623  0.91512853  0.75880528     0.04400
C3635       C  0.85518923  0.90437968  0.75993815     0.18600
C3636       C  0.88506417  0.91915266  0.75165407    -0.19400
C3637       C  0.85147980  0.87892053  0.76928061    -0.20700
C3638       C  0.82173063  0.86357566  0.77743997    -0.19200
C3639       C  0.79597535  0.87469228  0.77684939     0.20000
C3640       C  0.79993795  0.90166257  0.76782400     0.02100
C3641       C  0.77540237  0.91474479  0.76841005    -0.14000
C3642       C  0.74692366  0.90011537  0.77708761    -0.11700
C3643       C  0.74142430  0.87156892  0.78519015     0.01600
C3644       C  0.76629366  0.85924079  0.78523908    -0.23900
H3645       H  0.86280569  0.96981602  0.73240613     0.09600
H3646       H  0.81185767  0.94606816  0.74661640     0.13200
H3647       H  0.90582629  0.91183434  0.75279041     0.11900
H3648       H  0.87137356  0.87034010  0.77012666     0.13100
H3649       H  0.81916974  0.84337942  0.78439573     0.12100
H3650       H  0.77814747  0.93700045  0.76255395     0.09200
H3651       H  0.72944208  0.91165713  0.77763784     0.12500
H3652       H  0.76242540  0.83761432  0.79175976     0.14400
C3653       C  0.63537994  0.87121826  0.78491783    -0.01100
C3654       C  0.60228089  0.86815738  0.78829217    -0.09200
C3655       C  0.58675363  0.88363842  0.78067698    -0.18000
C3656       C  0.60274843  0.90068248  0.76892576     0.04400
C3657       C  0.63406825  0.90011101  0.76484325     0.18600
C3658       C  0.65040221  0.88626981  0.77293523    -0.19400
C3659       C  0.64861750  0.91287215  0.75263357    -0.20700
C3660       C  0.63232463  0.92584950  0.74431514    -0.19200
C3661       C  0.60227800  0.92812471  0.74827863     0.20000
C3662       C  0.58791893  0.91685869  0.76083290     0.02100
C3663       C  0.55974037  0.92281758  0.76483003    -0.14000
C3664       C  0.54522401  0.93764864  0.75645111    -0.11700
C3665       C  0.55792890  0.94647230  0.74381659     0.01600
C3666       C  0.58664172  0.94190685  0.73980829    -0.23900
H3667       H  0.58814183  0.85369875  0.79686448     0.09600
H3668       H  0.56149304  0.88054895  0.78396280     0.13200
H3669       H  0.67469515  0.88701518  0.76972167     0.11900
H3670       H  0.67229168  0.91208693  0.74939892     0.13100
H3671       H  0.64365990  0.93474735  0.73480654     0.12100
H3672       H  0.54897122  0.91703758  0.77445433     0.09200
H3673       H  0.52356225  0.94176302  0.75984036     0.12500
H3674       H  0.59732256  0.94981840  0.73016498     0.14400
C3675       C  0.63557211  0.76572735  0.78569910    -0.01100
C3676       C  0.60007065  0.73825710  0.78774815    -0.09200
C3677       C  0.58451579  0.70731472  0.78001595    -0.18000
C3678       C  0.60381225  0.70341998  0.76966115     0.04400
C3679       C  0.63938276  0.73216228  0.76730044     0.18600
C3680       C  0.65506448  0.76261788  0.77542915    -0.19400
C3681       C  0.65880113  0.73063824  0.75670566    -0.20700
C3682       C  0.64324600  0.70152398  0.74818165    -0.19200
C3683       C  0.60836785  0.67262609  0.75029928     0.20000
C3684       C  0.58864728  0.67261043  0.76132316     0.02100
C3685       C  0.55465144  0.64163297  0.76356764    -0.14000
C3686       C  0.54027438  0.61257710  0.75497630    -0.11700
C3687       C  0.55887072  0.61355103  0.74377969     0.01600
C3688       C  0.59304222  0.64358303  0.74150306    -0.23900
H3689       H  0.58397491  0.74099307  0.79522793     0.09600
H3690       H  0.55695124  0.68756327  0.78211845     0.13200
H3691       H  0.68244745  0.78414538  0.77370712     0.11900
H3692       H  0.68590641  0.75250784  0.75483974     0.13100
H3693       H  0.65867273  0.70152350  0.73990873     0.12100
H3694       H  0.53874592  0.63872737  0.77198521     0.09200
H3695       H  0.51410703  0.58931292  0.75702447     0.12500
H3696       H  0.60799258  0.64395518  0.73302286     0.14400
C3697       C  0.53396753  0.96015012  0.83129213    -0.01100
C3698       C  0.52135739  0.92341405  0.83435917    -0.09200
C3699       C  0.54105000  0.90629112  0.83107620    -0.18000
C3700       C  0.57405556  0.92531085  0.82438991     0.04400
C3701       C  0.58484442  0.96137002  0.82014340     0.18600
C3702       C  0.56490219  0.97849083  0.82367226    -0.19400
C3703       C  0.61616155  0.98052499  0.81278089    -0.20700
C3704       C  0.63720223  0.96490081  0.80966908    -0.19200
C3705       C  0.62804126  0.93003415  0.81410816     0.20000
C3706       C  0.59661930  0.90987047  0.82169992     0.02100
C3707       C  0.58934948  0.87523538  0.82627758    -0.14000
C3708       C  0.61047942  0.85994407  0.82246827    -0.11700
C3709       C  0.63949562  0.87866228  0.81405804     0.01600
C3710       C  0.64937951  0.91460336  0.81056206    -0.23900
H3711       H  0.49730980  0.90863294  0.84016342     0.09600
H3712       H  0.53012591  0.87837774  0.83411764     0.13200
H3713       H  0.57992483  0.50886929  0.82173188     0.11900
H3714       H  0.62444748  0.00782215  0.80938626     0.13100
H3715       H  0.66098710  0.98032975  0.80379505     0.12100
H3716       H  0.56695183  0.85893506  0.83254601     0.09200
H3717       H  0.60253427  0.83233933  0.82536147     0.12500
H3718       H  0.67211376  0.92941906  0.80415504     0.14400
C3719       C  0.74466349  0.87304185  0.81367998    -0.01100
C3720       C  0.75770398  0.85175334  0.81920399    -0.09200
C3721       C  0.79402548  0.86733009  0.82261664    -0.18000
C3722       C  0.81854710  0.90487843  0.82047590     0.04400
C3723       C  0.80462032  0.92640767  0.81527774     0.18600
C3724       C  0.76810120  0.91048123  0.81207209    -0.19400
C3725       C  0.82739561  0.96359121  0.81292099    -0.20700
C3726       C  0.86380364  0.98016739  0.81570703    -0.19200
C3727       C  0.87853220  0.96002286  0.82089913     0.20000
C3728       C  0.85624939  0.92196998  0.82326210     0.02100
C3729       C  0.87269268  0.90302784  0.82850348    -0.14000
C3730       C  0.90892491  0.92156600  0.83204675    -0.11700
C3731       C  0.93011836  0.95935306  0.83033195     0.01600
C3732       C  0.91514957  0.97815236  0.82427616    -0.23900
H3733       H  0.74020806  0.82258330  0.82019411     0.09600
H3734       H  0.80232636  0.84914758  0.82656955     0.13200
H3735       H  0.75819248  0.92685223  0.80754390     0.11900
H3736       H  0.81693546  0.98005939  0.80889248     0.13100
H3737       H  0.88578792  0.50601136  0.80909844     0.12100
H3738       H  0.85793923  0.87416597  0.83042597     0.09200
H3739       H  0.91997013  0.90668547  0.83689157     0.12500
H3740       H  0.93437120  0.50601891  0.82099647     0.14400
C3741       C  0.63716802  0.76404272  0.81440531    -0.01100
C3742       C  0.65265708  0.74196248  0.81251676    -0.09200
C3743       C  0.63396503  0.70488540  0.81565508    -0.18000
C3744       C  0.59881562  0.68846279  0.82083040     0.04400
C3745       C  0.58441642  0.71164639  0.82376795     0.18600
C3746       C  0.60363453  0.74910420  0.82054919    -0.19400
C3747       C  0.55040549  0.69698448  0.82948830    -0.20700
C3748       C  0.53045576  0.65993245  0.83238664    -0.19200
C3749       C  0.54347483  0.63627163  0.82931010     0.20000
C3750       C  0.57751066  0.64999422  0.82323272     0.02100
C3751       C  0.58855116  0.62450410  0.81980749    -0.14000
C3752       C  0.56807915  0.58759017  0.82326614    -0.11700
C3753       C  0.53606603  0.57491766  0.83021412     0.01600
C3754       C  0.52316483  0.59912433  0.83267802    -0.23900
H3755       H  0.67852485  0.75302781  0.80776264     0.09600
H3756       H  0.64740815  0.68958325  0.81365514     0.13200
H3757       H  0.59134984  0.76595274  0.82192996     0.11900
H3758       H  0.53919899  0.71434617  0.83180094     0.13100
H3759       H  0.50450879  0.64965316  0.83701745     0.12100
H3760       H  0.61330367  0.63246696  0.81471192     0.09200
H3761       H  0.57861365  0.56947378  0.82131474     0.12500
H3762       H  0.49833696  0.58942862  0.83805529     0.14400
C3763       C  0.94211206  0.88897305  0.23599626    -0.01100
C3764       C  0.91344922  0.88360732  0.22816551    -0.09200
C3765       C  0.89796317  0.85442513  0.21960219    -0.18000
C3766       C  0.91039415  0.82913708  0.21868758     0.04400
C3767       C  0.93870739  0.83398591  0.22695507     0.18600
C3768       C  0.95459532  0.86397920  0.23532942    -0.19400
C3769       C  0.95084196  0.80873866  0.22687976    -0.20700
C3770       C  0.93527572  0.77854840  0.21883947    -0.19200
C3771       C  0.90786623  0.77338692  0.21041693     0.20000
C3772       C  0.89547383  0.79898020  0.21001270     0.02100
C3773       C  0.86889980  0.79335457  0.20087309    -0.14000
C3774       C  0.85475605  0.76317951  0.19272082    -0.11700
C3775       C  0.86643627  0.73770969  0.19347222     0.01600
C3776       C  0.89283182  0.74278944  0.20234107    -0.23900
H3777       H  0.90321143  0.90244033  0.22850580     0.09600
H3778       H  0.87601245  0.85217641  0.21394491     0.13200
H3779       H  0.97645981  0.86760635  0.24146455     0.11900
H3780       H  0.47997452  0.82264452  0.22927383     0.13100
H3781       H  0.94497571  0.75925665  0.21912833     0.12100
H3782       H  0.85876157  0.81194065  0.19969540     0.09200
H3783       H  0.83428600  0.75944534  0.18588034     0.12500
H3784       H  0.90197814  0.72304255  0.20280982     0.14400
C3785       C  0.86432884  0.63097156  0.19402541    -0.01100
C3786       C  0.84211830  0.60371273  0.20262127    -0.09200
C3787       C  0.85665093  0.59024324  0.21153193    -0.18000
C3788       C  0.89422062  0.60437718  0.21224814     0.04400
C3789       C  0.91660494  0.63211976  0.20339345     0.18600
C3790       C  0.90146312  0.64495088  0.19432373    -0.19400
C3791       C  0.95393647  0.64724965  0.20378181    -0.20700
C3792       C  0.96964578  0.63535427  0.21278395    -0.19200
C3793       C  0.94837578  0.60785700  0.22154635     0.20000
C3794       C  0.91033715  0.59204592  0.22142876     0.02100
C3795       C  0.89004459  0.56428066  0.23043019    -0.14000
C3796       C  0.90662546  0.55162169  0.23875770    -0.11700
C3797       C  0.94393258  0.56640837  0.23856278     0.01600
C3798       C  0.96482195  0.59529776  0.23020557    -0.23900
H3799       H  0.81332520  0.59297375  0.20247713     0.09600
H3800       H  0.83771948  0.56916127  0.21781414     0.13200
H3801       H  0.91857346  0.66659133  0.18773648     0.11900
H3802       H  0.97110803  0.66846646  0.19708311     0.13100
H3803       H  0.99862871  0.64750367  0.21281020     0.12100
H3804       H  0.86121335  0.55113122  0.23113424     0.09200
H3805       H  0.88998041  0.52953339  0.24525050     0.12500
H3806       H  0.99374419  0.60678973  0.22999348     0.14400
C3807       C  0.76063450  0.63237675  0.19302885    -0.01100
C3808       C  0.73743129  0.59479005  0.19259357    -0.09200
C3809       C  0.70682291  0.57856150  0.20031404    -0.18000
C3810       C  0.69860737  0.59974193  0.20873520     0.04400
C3811       C  0.72180571  0.63819357  0.20874812     0.18600
C3812       C  0.75287582  0.65404722  0.20107508    -0.19400
C3813       C  0.71383058  0.66051222  0.21640418    -0.20700
C3814       C  0.68336946  0.64541606  0.22417394    -0.19200
C3815       C  0.66075193  0.60758900  0.22473292     0.20000
C3816       C  0.66826904  0.58416879  0.21713131     0.02100
C3817       C  0.64554478  0.54612096  0.21847645    -0.14000
C3818       C  0.61644327  0.53198011  0.22691501    -0.11700
C3819       C  0.60870719  0.55512930  0.23418796     0.01600
C3820       C  0.63088530  0.59296261  0.23300345    -0.23900
H3821       H  0.74326868  0.57788556  0.18632305     0.09600
H3822       H  0.69005476  0.54947783  0.19937458     0.13200
H3823       H  0.77088753  0.68330615  0.20122095     0.11900
H3824       H  0.73120775  0.68985206  0.21634946     0.13100
H3825       H  0.67781143  0.66340969  0.22995770     0.12100
H3826       H  0.64983763  0.52647779  0.21332722     0.09200
H3827       H  0.59970517  0.50264811  0.22765470     0.12500
H3828       H  0.62528091  0.61109261  0.23869525     0.14400
C3829       C  0.56275393  0.95784961  0.29339811    -0.01100
C3830       C  0.56376029  0.92567661  0.29131670    -0.09200
C3831       C  0.57215212  0.90931844  0.30135439    -0.18000
C3832       C  0.57964781  0.92477566  0.31381730     0.04400
C3833       C  0.58099416  0.95873093  0.31557635     0.18600
C3834       C  0.57263847  0.97481258  0.30543893    -0.19400
C3835       C  0.58987849  0.97613036  0.32751793    -0.20700
C3836       C  0.59757872  0.96046919  0.33784048    -0.19200
C3837       C  0.59570847  0.92662237  0.33654974     0.20000
C3838       C  0.58602138  0.90796009  0.32457489     0.02100
C3839       C  0.58286967  0.87314427  0.32392262    -0.14000
C3840       C  0.59148381  0.85869321  0.33441091    -0.11700
C3841       C  0.60321286  0.87814225  0.34593836     0.01600
C3842       C  0.60418005  0.91161219  0.34709324    -0.23900
H3843       H  0.55640494  0.91219390  0.28208865     0.09600
H3844       H  0.57211920  0.88440894  0.29909730     0.13200
H3845       H  0.57260457  0.49672494  0.30607422     0.11900
H3846       H  0.59542283  0.50234382  0.32747984     0.13100
H3847       H  0.60482829  0.97483125  0.34691879     0.12100
H3848       H  0.57414027  0.85652611  0.31541640     0.09200
H3849       H  0.58993282  0.83242528  0.33336109     0.12500
H3850       H  0.61319973  0.92679656  0.35598298     0.14400
C3851       C  0.61712408  0.71794392  0.34923174    -0.01100
C3852       C  0.58257339  0.68791585  0.35028897    -0.09200
C3853       C  0.56723705  0.66423590  0.33992129    -0.18000
C3854       C  0.58624395  0.67021615  0.32818617     0.04400
C3855       C  0.62258863  0.69858374  0.32770884     0.18600
C3856       C  0.63756475  0.72209317  0.33816383    -0.19400
C3857       C  0.64333600  0.70427015  0.31662917    -0.20700
C3858       C  0.62846793  0.68270194  0.30584124    -0.19200
C3859       C  0.59227553  0.65561815  0.30577636     0.20000
C3860       C  0.57051099  0.64933469  0.31690211     0.02100
C3861       C  0.53378350  0.62282235  0.31618087    -0.14000
C3862       C  0.51995503  0.60153759  0.30524842    -0.11700
C3863       C  0.54201124  0.60624074  0.29463668     0.01600
C3864       C  0.57784577  0.63415519  0.29475106    -0.23900
H3865       H  0.56650278  0.68411981  0.35880959     0.09600
H3866       H  0.54023896  0.64203800  0.34128291     0.13200
H3867       H  0.66467868  0.74501314  0.33742641     0.11900
H3868       H  0.67120931  0.72567949  0.31628400     0.13100
H3869       H  0.64525341  0.68758113  0.29743336     0.12100
H3870       H  0.51514776  0.61757075  0.32394967     0.09200
H3871       H  0.99768803  0.57528596  0.30956759     0.12500
H3872       H  0.59503144  0.63769079  0.28657045     0.14400
C3873       C  0.89803790  0.94721575  0.29633437    -0.01100
C3874       C  0.90619886  0.93711320  0.30808252    -0.09200
C3875       C  0.88240660  0.92680255  0.31835792    -0.18000
C3876       C  0.84952289  0.92653087  0.31724246     0.04400
C3877       C  0.84075281  0.93553554  0.30512886     0.18600
C3878       C  0.86498261  0.94567851  0.29479353    -0.19400
C3879       C  0.80803518  0.93469326  0.30345893    -0.20700
C3880       C  0.78343433  0.92429941  0.31348629    -0.19200
C3881       C  0.79131903  0.91520014  0.32547309     0.20000
C3882       C  0.82482554  0.91709141  0.32765386     0.02100
C3883       C  0.83200143  0.90926003  0.34015087    -0.14000
C3884       C  0.80596845  0.89765614  0.34981875    -0.11700
C3885       C  0.77221474  0.89357489  0.34731481     0.01600
C3886       C  0.76546750  0.90340990  0.33523944    -0.23900
H3887       H  0.93156297  0.93777699  0.30941446     0.09600
H3888       H  0.89064363  0.91927518  0.32703171     0.13200
H3889       H  0.85871432  0.95369569  0.28571955     0.11900
H3890       H  0.80122800  0.94166401  0.29429164     0.13100
H3891       H  0.75798932  0.92320405  0.31184061     0.12100
H3892       H  0.85727750  0.91145599  0.34274581     0.09200
H3893       H  0.81179871  0.89052035  0.35912104     0.12500
H3894       H  0.73956062  0.90104137  0.33332384     0.14400
C3895       C  0.79602402  0.59698620  0.44905534    -0.01100
C3896       C  0.77051613  0.59415879  0.44019953    -0.09200
C3897       C  0.75377663  0.56403856  0.43213856    -0.18000
C3898       C  0.76255875  0.53591022  0.43260364     0.04400
C3899       C  0.78923347  0.53946826  0.44145735     0.18600
C3900       C  0.80543020  0.56971319  0.44966611    -0.19400
C3901       C  0.79995525  0.51314830  0.44190524    -0.20700
C3902       C  0.78538382  0.48373845  0.43350660    -0.19200
C3903       C  0.75906221  0.47946121  0.42469852     0.20000
C3904       C  0.74650919  0.50490691  0.42437815     0.02100
C3905       C  0.72165037  0.00232897  0.41430641    -0.14000
C3906       C  0.70727786  0.97231133  0.40610138    -0.11700
C3907       C  0.72142239  0.94875722  0.40566338     0.01600
C3908       C  0.75045864  0.95576844  0.41359337    -0.23900
H3909       H  0.76327478  0.61531215  0.43960238     0.09600
H3910       H  0.73461932  0.56398515  0.42549467     0.13200
H3911       H  0.82576964  0.57240780  0.45640809     0.11900
H3912       H  0.82023909  0.51568896  0.44863577     0.13100
H3913       H  0.79474165  0.46418415  0.43390959     0.12100
H3914       H  0.70918554  0.01903933  0.41407816     0.09200
H3915       H  0.68491530  0.96754254  0.40004936     0.12500
H3916       H  0.76142274  0.93751400  0.41340745     0.14400
C3917       C  0.90252091  0.70317224  0.44961677    -0.01100
C3918       C  0.92772031  0.74011701  0.45105151    -0.09200
C3919       C  0.95770734  0.75690208  0.44298985    -0.18000
C3920       C  0.96324771  0.73703404  0.43315699     0.04400
C3921       C  0.93748692  0.69939346  0.43184524     0.18600
C3922       C  0.90735233  0.68301002  0.43996571    -0.19400
C3923       C  0.44026052  0.67761123  0.42322020    -0.20700
C3924       C  0.46953319  0.69242047  0.41490362    -0.19200
C3925       C  0.49580861  0.72922530  0.41574923     0.20000
C3926       C  0.99347843  0.75296832  0.42465895     0.02100
C3927       C  0.01967015  0.79042966  0.42489024    -0.14000
C3928       C  0.54810535  0.80315278  0.41648861    -0.11700
C3929       C  0.55133922  0.78027956  0.40749166     0.01600
C3930       C  0.52510492  0.74332799  0.40720247    -0.23900
H3931       H  0.92392777  0.75619250  0.45835010     0.09600
H3932       H  0.97606941  0.78536041  0.44473777     0.13200
H3933       H  0.88767711  0.65435751  0.43887338     0.11900
H3934       H  0.42028773  0.64904178  0.42226977     0.13100
H3935       H  0.47155984  0.67495452  0.40771206     0.12100
H3936       H  0.01809194  0.80953284  0.43134616     0.09200
H3937       H  0.56819459  0.83178769  0.41692261     0.12500
H3938       H  0.52728809  0.72553338  0.40018166     0.14400
C3939       C  0.79854027  0.70363084  0.44934892    -0.01100
C3940       C  0.82061123  0.73075569  0.44067252    -0.09200
C3941       C  0.80645678  0.74675884  0.43264962    -0.18000
C3942       C  0.76940249  0.73560292  0.43298702     0.04400
C3943       C  0.74702683  0.70741905  0.44169935     0.18600
C3944       C  0.76177564  0.69185020  0.44980722    -0.19400
C3945       C  0.71003279  0.69457975  0.44211630    -0.20700
C3946       C  0.69453942  0.70855091  0.43383061    -0.19200
C3947       C  0.71578478  0.73622521  0.42511125     0.20000
C3948       C  0.75364300  0.75076950  0.42479119     0.02100
C3949       C  0.77409348  0.77986846  0.41626206    -0.14000
C3950       C  0.75758372  0.79313461  0.40812073    -0.11700
C3951       C  0.72018984  0.77784987  0.40809290     0.01600
C3952       C  0.69941175  0.74948963  0.41668653    -0.23900
H3953       H  0.84905852  0.73974211  0.44016121     0.09600
H3954       H  0.82514930  0.76731373  0.42615725     0.13200
H3955       H  0.74459012  0.67008195  0.45633545     0.11900
H3956       H  0.69287353  0.67316838  0.44876064     0.13100
H3957       H  0.66573181  0.69761684  0.43423932     0.12100
H3958       H  0.80295449  0.79322948  0.41569562     0.09200
H3959       H  0.77430908  0.81535399  0.40168983     0.12500
H3960       H  0.67050093  0.73799946  0.41692673     0.14400
loop_ 
_geom_bond_atom_site_label_1 
_geom_bond_atom_site_label_2 
_geom_bond_distance 
_geom_bond_site_symmetry_2 
_ccdc_geom_bond_type 
Zn1           O5   1.959       .  S
Zn1           O6   2.033       .  S
Zn1          O10   2.046       .  S
Zn1          O17   2.022       .  S
Zn2           O5   1.950       .  S
Zn2           O7   2.049       .  S
Zn2           O9   2.009       .  S
Zn2          O13   2.017       .  S
Zn3           O5   1.896       .  S
Zn3           O8   1.949       .  S
Zn3          O11   1.945       .  S
Zn3          O14   1.949       .  S
Zn4           O5   1.952       .  S
Zn4          O12   2.054       .  S
Zn4          O15   2.014       .  S
Zn4          O16   2.022       .  S
O6           C18   1.277       .  A
O7           C19   1.276       .  A
O8           C20   1.265       .  A
O9           C18   1.275       .  A
O10          C20   1.276       .  A
O11          C19   1.264       .  A
O12          C21   1.275       .  A
O13          C22   1.275       .  A
O14          C21   1.265       .  A
O15          C22   1.276       .  A
O16          C23   1.277       .  A
O17          C23   1.276       .  A
C18         C981   1.483       .  S
C19         C915   1.470       .  S
C20         C881   1.466       .  S
C21         C871   1.474       .  S
C22         C937   1.474       .  S
C23         C959   1.479       .  S
Zn24         O28   1.895       .  S
Zn24         O33   1.949       .  S
Zn24       O2009   1.953       .  S
Zn24       O3010   1.956       .  S
Zn25       O2008   1.953   1_455  S
Zn25         O32   2.049       .  S
Zn25       O2010   2.015   1_455  S
Zn25       O1026   2.007       .  S
Zn26         O28   1.945       .  S
Zn26         O31   2.026       .  S
Zn26         O34   1.998       .  S
Zn26       O1027   1.980       .  S
Zn27       O2998   1.962       .  S
Zn27         O38   1.998       .  S
Zn27         O39   2.051       .  S
Zn27       O2015   2.029   1_455  S
O28       Zn2005   1.952       .  S
O28       Zn2997   1.959       .  S
O29       Zn2004   1.945   1_455  S
O29          C41   1.265       .  A
O30       Zn2005   2.023       .  S
O30          C42   1.276       .  A
O31          C43   1.272       .  A
O32          C41   1.276       .  A
O33          C43   1.265       .  A
O34          C42   1.272       .  A
O35       Zn2007   2.018       .  S
O35          C44   1.275       .  A
O36       Zn1015   2.019   1_545  S
O36          C45   1.276       .  A
O37       Zn1016   2.007   1_545  S
O37          C44   1.274       .  A
O38          C45   1.274       .  A
O39          C46   1.273       .  A
O40       Zn2994   1.950       .  S
O40          C46   1.265       .  A
C41         C859   1.473       .  S
C42         C793   1.478       .  S
C43         C903   1.463       .  S
C44         C827   1.477       .  S
C45         C849   1.475       .  S
C46         C893   1.465       .  S
C47          H48   1.110       .  S
C47          C53   1.554       .  S
C47          C52   1.556       .  S
C47          C51   1.558       .  S
C49          H50   1.110       .  S
C49          C55   1.520       .  S
C49          C54   1.525       .  S
C49          C56   1.521       .  S
C51          C54   1.380       .  D
C51         C739   1.490       .  S
C52          C55   1.370       .  D
C52         C749   1.493       .  S
C53          C56   1.373       .  D
C53         C771   1.490       .  S
C54         C683   1.490       .  S
C55         C673   1.472       .  S
C56         C705   1.481       .  S
C57          H58   1.109       .  S
C57          C63   1.530       .  S
C57        C2042   1.522       .  S
C57        C3031   1.522       .  S
C59          H60   1.111       .  S
C59          C66   1.556       .  S
C59        C2045   1.553       .  S
C59        C3034   1.557       .  S
C61        C3027   1.520       .  S
C61          C64   1.375       .  D
C61         C639   1.483       .  S
C62        C2037   1.523       .  S
C62          C65   1.369       .  D
C62         C617   1.481       .  S
C63          C66   1.382       .  D
C63         C595   1.495       .  S
C64        C3029   1.557       .  S
C64         C783   1.492       .  S
C65        C2039   1.553       .  S
C65         C727   1.488       .  S
C66         C761   1.493       .  S
C67          H68   1.110       .  S
C67          C73   1.555       .  S
C67          C72   1.554       .  S
C67          C71   1.553       .  S
C69          H70   1.110       .  S
C69          C75   1.524       .  S
C69          C74   1.523       .  S
C69          C76   1.523       .  S
C71          C74   1.377       .  D
C71         C585   1.491       .  S
C72          C75   1.377       .  D
C72         C529   1.491       .  S
C73          C76   1.377       .  D
C73         C551   1.493       .  S
C74         C519   1.482       .  S
C75         C475   1.487       .  S
C76         C485   1.483       .  S
C77          H78   1.112       .  S
C77          C83   1.521       .  S
C77          C82   1.520       .  S
C77          C81   1.519       .  S
C79          H80   1.110       .  S
C79          C85   1.561       .  S
C79          C84   1.561       .  S
C79          C86   1.563       .  S
C81          C84   1.373       .  D
C81         C969   1.476       .  S
C82          C85   1.372       .  D
C82         C925   1.472       .  S
C83          C86   1.375       .  D
C83         C947   1.478       .  S
C84         C573   1.495       .  S
C85         C541   1.498       .  S
C86         C563   1.499       .  S
Zn87         O91   1.957       .  S
Zn87         O92   2.009       .  S
Zn87         O96   2.003       .  S
Zn87        O103   2.032       .  S
Zn88         O91   1.955       .  S
Zn88         O93   2.012       .  S
Zn88         O95   1.991       .  S
Zn88         O99   2.006       .  S
Zn89         O91   1.961       .  S
Zn89         O94   2.029       .  S
Zn89         O97   2.011       .  S
Zn89        O100   2.026       .  S
Zn90         O91   1.939       .  S
Zn90         O98   1.998       .  S
Zn90        O101   1.997       .  S
Zn90        O102   1.996       .  S
O92         C104   1.273       .  A
O93         C105   1.273       .  A
O94         C106   1.275       .  A
O95         C104   1.271       .  A
O96         C106   1.273       .  A
O97         C105   1.273       .  A
O98         C107   1.272       .  A
O99         C108   1.272       .  A
O100        C107   1.275       .  A
O101        C108   1.271       .  A
O102        C109   1.271       .  A
O103        C109   1.275       .  A
C104        C441   1.476       .  S
C105        C431   1.481       .  S
C106        C409   1.482       .  S
C107        C497   1.472       .  S
C108        C507   1.469       .  S
C109        C463   1.475       .  S
Zn110      O1104   1.957       .  S
Zn110       O119   2.023       .  S
Zn110      O2095   2.011   1_455  S
Zn110      O1116   1.997       .  S
Zn111      O3084   1.951       .  S
Zn111       O116   2.013       .  S
Zn111       O118   2.002       .  S
Zn111      O1112   1.992       .  S
Zn112       O114   1.936       .  S
Zn112       O123   1.989       .  S
Zn112      O1107   1.976   1_545  S
Zn112      O3090   1.993   1_445  S
Zn113       O114   1.962       .  S
Zn113       O121   2.027       .  S
Zn113       O125   2.010       .  S
Zn113      O2104   2.036       .  S
O114      Zn1100   1.956   1_545  S
O114      Zn3081   1.943   1_445  S
O115      Zn2090   2.022       .  S
O115        C127   1.274       .  A
O116        C128   1.272       .  A
O117      Zn1102   1.976       .  S
O117        C129   1.269       .  A
O118        C127   1.272       .  A
O119        C129   1.274       .  A
O120      Zn3082   1.999       .  S
O120        C128   1.270       .  A
O121        C130   1.276       .  A
O122      Zn1101   1.992   1_545  S
O122        C131   1.272       .  A
O123        C130   1.271       .  A
O124      Zn2093   2.034       .  S
O124        C131   1.274       .  A
O125        C132   1.273       .  A
O126      Zn1100   1.994   1_545  S
O126        C132   1.271       .  A
C127        C419   1.481       .  S
C128        C661   1.464       .  S
C129        C695   1.470       .  S
C130        C717   1.470       .  S
C131        C397   1.482       .  S
C132        C453   1.477       .  S
C133        H134   1.110       .  S
C133        C139   1.555       .  S
C133        C138   1.559       .  S
C133        C137   1.555       .  S
C135        H136   1.113       .  S
C135        C141   1.517       .  S
C135        C140   1.517       .  S
C135        C142   1.521       .  S
C137        C140   1.370       .  D
C137        C375   1.488       .  S
C138        C141   1.373       .  D
C138        C331   1.491       .  S
C139        C142   1.370       .  D
C139        C365   1.490       .  S
C140        C837   1.469       .  S
C141        C815   1.472       .  S
C142        C805   1.469       .  S
C143        H144   1.112       .  S
C143        C147   1.520       .  S
C143       C2129   1.521       .  S
C143       C1138   1.524   1_545  S
C145        H146   1.110       .  S
C145        C152   1.556   1_665  S
C145       C3121   1.559       .  S
C145       C2130   1.557   1_565  S
C147        C150   1.372       .  D
C147        C299   1.470       .  S
C148       C1133   1.517       .  S
C148        C151   1.368       .  D
C148        C265   1.467       .  S
C149       C2123   1.516       .  S
C149        C152   1.369       .  D
C149        C309   1.470       .  S
C150       C2125   1.554       .  S
C150        C343   1.491       .  S
C151       C3115   1.561       .  S
C151        C353   1.494       .  S
C152        C387   1.487       .  S
Zn153       O157   1.953       .  S
Zn153       O158   2.008       .  S
Zn153       O162   1.999       .  S
Zn153       O169   2.026       .  S
Zn154       O157   1.960       .  S
Zn154       O159   2.011       .  S
Zn154       O161   2.006       .  S
Zn154       O165   2.024       .  S
Zn155       O157   1.956       .  S
Zn155       O160   2.003       .  S
Zn155       O163   2.009       .  S
Zn155       O166   2.020       .  S
Zn156       O157   1.938       .  S
Zn156       O164   2.007       .  S
Zn156       O167   1.985       .  S
Zn156       O168   2.000       .  S
O158        C170   1.273       .  A
O159        C171   1.273       .  A
O160        C172   1.271       .  A
O161        C170   1.272       .  A
O162        C172   1.272       .  A
O163        C171   1.273       .  A
O164        C173   1.273       .  A
O165        C174   1.275       .  A
O166        C173   1.274       .  A
O167        C174   1.270       .  A
O168        C175   1.271       .  A
O169        C175   1.274       .  A
C170        C221   1.474       .  S
C171        C199   1.478       .  S
C172        C243   1.474       .  S
C173        C651   1.470       .  S
C174        C607   1.473       .  S
C175        C629   1.467       .  S
Zn176       O180   1.921       .  S
Zn176       O181   1.976       .  S
Zn176       O185   1.981       .  S
Zn176       O192   1.973       .  S
Zn177       O180   1.965       .  S
Zn177       O182   2.017       .  S
Zn177       O184   2.042       .  S
Zn177       O188   2.009       .  S
Zn178       O180   1.959       .  S
Zn178       O183   2.040       .  S
Zn178       O186   1.987       .  S
Zn178       O189   2.021       .  S
Zn179       O180   1.954       .  S
Zn179       O187   2.000       .  S
Zn179       O190   2.012       .  S
Zn179       O191   2.024       .  S
O181        C193   1.268       .  A
O182        C194   1.275       .  A
O183        C195   1.274       .  A
O184        C193   1.274       .  A
O185        C195   1.268       .  A
O186        C194   1.272       .  A
O187        C196   1.273       .  A
O188        C197   1.273       .  A
O189        C196   1.274       .  A
O190        C197   1.274       .  A
O191        C198   1.273       .  A
O192        C198   1.268       .  A
C193        C255   1.469       .  S
C194        C277   1.473       .  S
C195        C211   1.467       .  S
C196        C321   1.478       .  S
C197        C287   1.480       .  S
C198        C233   1.463       .  S
C199        C200   1.402       .  A
C199        C204   1.400       .  A
C200        C201   1.397       .  A
C200        H213   1.083       .  S
C201        C202   1.414       .  A
C201        H214   1.078       .  S
C202        C208   1.428       .  A
C202        C203   1.423       .  A
C203        C205   1.399       .  A
C203        C204   1.403       .  A
C204        H215   1.085       .  S
C205        C206   1.388       .  A
C205        H216   1.084       .  S
C206        C207   1.399       .  A
C206        H217   1.084       .  S
C207        C208   1.421       .  A
C207        C212   1.400   1_556  A
C208        C209   1.417   1_556  A
C209        C210   1.399       .  A
C209        H218   1.078       .  S
C210        C211   1.397       .  A
C210        H219   1.083       .  S
C211        C212   1.398       .  A
C212        H220   1.085       .  S
C221        C222   1.401       .  A
C221        C226   1.400       .  A
C222        C223   1.394       .  A
C222        H235   1.083       .  S
C223        C224   1.412       .  A
C223        H236   1.078       .  S
C224        C225   1.423       .  A
C224       C1220   1.425       .  A
C225        C227   1.399       .  A
C225        C226   1.403       .  A
C226        H237   1.085       .  S
C227       C1218   1.388       .  A
C227        H238   1.084       .  S
C228        C229   1.398       .  A
C228       C1217   1.387       .  A
C228        H239   1.084       .  S
C229        C230   1.421       .  A
C229        C234   1.398   1_556  A
C230        C231   1.416   1_556  A
C230       C1214   1.425   1_545  A
C231        C232   1.397       .  A
C231        H240   1.078   1_545  S
C232        C233   1.396       .  A
C232        H241   1.083       .  S
C233        C234   1.397       .  A
C234        H242   1.085       .  S
C243        C244   1.398       .  A
C243        C248   1.402       .  A
C244        C245   1.393       .  A
C244        H257   1.084       .  S
C245        C246   1.415       .  A
C245        H258   1.076       .  S
C246        C247   1.421       .  A
C246       C2232   1.426   1_455  A
C247        C249   1.400       .  A
C247        C248   1.404       .  A
C248        H259   1.084       .  S
C249       C2230   1.391   1_556  A
C249        H260   1.084       .  S
C250        C251   1.400       .  A
C250       C2229   1.392   1_554  A
C250        H261   1.084       .  S
C251        C252   1.424   1_554  A
C251        C256   1.408       .  A
C252        C253   1.413       .  A
C252       C2226   1.427       .  A
C253        C254   1.391   1_556  A
C253        H262   1.076       .  S
C254        C255   1.397       .  A
C254        H263   1.084       .  S
C255        C256   1.400       .  A
C256        H264   1.084       .  S
C265        C266   1.392       .  A
C265        C270   1.396       .  A
C266        C267   1.391       .  A
C266        H279   1.083       .  S
C267        C268   1.416       .  A
C267        H280   1.077       .  S
C268        C274   1.424       .  A
C268        C269   1.423       .  A
C269        C271   1.399       .  A
C269        C270   1.402       .  A
C270       H2261   1.085       .  S
C271        C272   1.390       .  A
C271       H2262   1.084       .  S
C272        C273   1.399       .  A
C272        H283   1.084       .  S
C273        C274   1.423       .  A
C273        C278   1.403       .  A
C274        C275   1.413       .  A
C275        C276   1.390       .  A
C275        H284   1.077       .  S
C276        C277   1.400       .  A
C276        H285   1.083       .  S
C277        C278   1.401       .  A
C278        H286   1.085       .  S
H281       C2250   1.085       .  S
H282       C2251   1.084       .  S
C287        C288   1.401       .  A
C287        C292   1.403       .  A
C288        C289   1.394       .  A
C288        H301   1.083       .  S
C289        C290   1.414       .  A
C289        H302   1.077       .  S
C290        C296   1.427       .  A
C290        C291   1.422       .  A
C291        C293   1.400       .  A
C291        C292   1.404       .  A
C292        H303   1.084       .  S
C293        C294   1.390       .  A
C293        H304   1.084       .  S
C294        C295   1.399       .  A
C294        H305   1.084       .  S
C295        C296   1.424       .  A
C295        C300   1.403       .  A
C296        C297   1.415       .  A
C297        C298   1.393       .  A
C297        H306   1.077       .  S
C298        C299   1.394       .  A
C298        H307   1.084   1_545  S
C299        C300   1.396       .  A
C300        H308   1.085       .  S
C309        C310   1.393       .  A
C309        C314   1.396       .  A
C310        C311   1.392       .  A
C310        H323   1.084   1_545  S
C311        C312   1.416       .  A
C311        H324   1.076       .  S
C312        C318   1.426       .  A
C312        C313   1.423       .  A
C313        C315   1.399       .  A
C313        C314   1.402       .  A
C314        H325   1.085       .  S
C315        C316   1.390       .  A
C315        H326   1.084       .  S
C316        C317   1.400       .  A
C316        H327   1.084       .  S
C317        C318   1.422       .  A
C317        C322   1.405       .  A
C318        C319   1.413       .  A
C319        C320   1.392       .  A
C319        H328   1.077       .  S
C320        C321   1.400       .  A
C320        H329   1.083       .  S
C321        C322   1.402       .  A
C322        H330   1.084       .  S
C331        C332   1.402       .  A
C331        C336   1.399       .  A
C332        C333   1.400       .  A
C332        H345   1.084       .  S
C333        C334   1.414       .  A
C333        H346   1.078       .  S
C334        C340   1.437       .  A
C334        C335   1.426       .  A
C335        C337   1.399       .  A
C335        C336   1.412       .  A
C336        H347   1.085       .  S
C337        C338   1.392       .  A
C337        H348   1.084       .  S
C338        C339   1.400       .  A
C338       H2329   1.084       .  S
C339        C340   1.422       .  A
C339        C344   1.407       .  A
C340        C341   1.420       .  A
C341        C342   1.404       .  A
C341        H350   1.078       .  S
C342        C343   1.398       .  A
C342       H1341   1.083   1_545  S
C343        C344   1.403       .  A
C344       H2332   1.085       .  S
H349       C2318   1.084       .  S
H351       C1332   1.083       .  S
H352       C2324   1.085   1_455  S
C353        C354   1.402       .  A
C353        C358   1.402       .  A
C354        C355   1.404       .  A
C354        H367   1.084       .  S
C355        C356   1.417       .  A
C355        H368   1.078       .  S
C356        C362   1.440       .  A
C356        C357   1.424       .  A
C357        C359   1.400       .  A
C357        C358   1.414       .  A
C358       H2349   1.085       .  S
C359        C360   1.393       .  A
C359       H2350   1.084       .  S
C360        C361   1.400       .  A
C360        H371   1.084       .  S
C361        C362   1.424       .  A
C361        C366   1.412       .  A
C362        C363   1.418       .  A
C363        C364   1.404       .  A
C363        H372   1.078       .  S
C364        C365   1.400       .  A
C364        H373   1.084       .  S
C365        C366   1.402       .  A
C366        H374   1.085       .  S
H369       C2338   1.085   1_455  S
H370       C2339   1.084   1_455  S
C375        C376   1.401       .  A
C375        C380   1.401       .  A
C376        C377   1.398       .  A
C376        H389   1.084       .  S
C377        C378   1.414       .  A
C377        H390   1.077       .  S
C378        C384   1.435       .  A
C378        C379   1.425       .  A
C379        C381   1.400       .  A
C379        C380   1.413       .  A
C380        H391   1.084       .  S
C381        C382   1.393       .  A
C381        H392   1.084       .  S
C382        C383   1.401       .  A
C382        H393   1.084   1_545  S
C383        C384   1.421       .  A
C383        C388   1.408       .  A
C384        C385   1.419       .  A
C385        C386   1.402       .  A
C385        H394   1.077       .  S
C386        C387   1.397       .  A
C386        H395   1.084       .  S
C387        C388   1.404       .  A
C388        H396   1.085   1_545  S
C397        C398   1.401       .  A
C397        C402   1.404       .  A
C398        C399   1.391       .  A
C398        H411   1.083       .  S
C399        C400   1.412       .  A
C399        H412   1.077       .  S
C400        C406   1.428       .  A
C400        C401   1.423       .  A
C401        C403   1.401       .  A
C401        C402   1.409       .  A
C402        H413   1.084       .  S
C403        C404   1.393       .  A
C403        H414   1.084       .  S
C404        C405   1.401       .  A
C404        H415   1.084       .  S
C405        C406   1.422       .  A
C405        C410   1.408       .  A
C406        C407   1.413       .  A
C407        C408   1.392       .  A
C407        H416   1.077       .  S
C408        C409   1.401       .  A
C408        H417   1.083       .  S
C409        C410   1.404       .  A
C410        H418   1.084       .  S
C419        C420   1.402       .  A
C419        C424   1.401       .  A
C420        C421   1.396       .  A
C420        H433   1.083       .  S
C421        C422   1.414       .  A
C421        H434   1.077       .  S
C422        C428   1.429       .  A
C422        C423   1.422       .  A
C423        C425   1.399       .  A
C423        C424   1.404       .  A
C424        H435   1.084       .  S
C425        C426   1.389       .  A
C425        H436   1.084       .  S
C426        C427   1.399       .  A
C426        H437   1.084       .  S
C427        C428   1.422       .  A
C427        C432   1.403       .  A
C428        C429   1.415       .  A
C429        C430   1.397       .  A
C429        H438   1.078       .  S
C430        C431   1.402       .  A
C430        H439   1.083       .  S
C431        C432   1.402       .  A
C432        H440   1.085       .  S
C441        C442   1.400       .  A
C441        C446   1.403       .  A
C442        C443   1.393       .  A
C442        H455   1.083       .  S
C443        C444   1.414       .  A
C443        H456   1.077       .  S
C444        C450   1.425       .  A
C444        C445   1.421       .  A
C445        C447   1.399       .  A
C445        C446   1.401       .  A
C446        H457   1.084       .  S
C447        C448   1.388       .  A
C447        H458   1.084       .  S
C448        C449   1.399       .  A
C448        H459   1.084       .  S
C449        C450   1.422       .  A
C449        C454   1.402       .  A
C450        C451   1.413       .  A
C451        C452   1.393       .  A
C451        H460   1.077       .  S
C452        C453   1.401       .  A
C452        H461   1.083       .  S
C453        C454   1.401       .  A
C454        H462   1.084       .  S
C463        C464   1.398       .  A
C463        C468   1.401       .  A
C464        C465   1.398   1_545  A
C464        H477   1.083       .  S
C465       C1456   1.417       .  A
C465       H1468   1.078       .  S
C466        C472   1.425       .  A
C466       C1455   1.414       .  A
C466       C1457   1.422       .  A
C467        C469   1.400       .  A
C467        C468   1.402       .  A
C467       C1456   1.421   1_545  A
C468        H479   1.085       .  S
C469       C1460   1.389   1_545  A
C469        H480   1.084       .  S
C470        C471   1.399       .  A
C470       C1459   1.390       .  A
C470        H481   1.084       .  S
C471        C472   1.421       .  A
C471        C476   1.402       .  A
C472        C473   1.413       .  A
C473        C474   1.393       .  A
C473        H482   1.078       .  S
C474        C475   1.399       .  A
C474        H483   1.083       .  S
C475        C476   1.401       .  A
C476        H484   1.082       .  S
H478       C1455   1.077       .  S
C485        C486   1.399       .  A
C485        C490   1.400       .  A
C486        C487   1.392       .  A
C486        H499   1.081       .  S
C487        C488   1.413       .  A
C487        H500   1.078       .  S
C488        C494   1.424       .  A
C488        C489   1.421       .  A
C489        C491   1.400       .  A
C489        C490   1.402       .  A
C490        H501   1.085       .  S
C491       C2472   1.390       .  A
C491        H502   1.084       .  S
C492        C493   1.400       .  A
C492       C2471   1.391       .  A
C492        H503   1.084       .  S
C493        C498   1.405       .  A
C493       C2474   1.423       .  A
C494        C495   1.413   1_455  A
C494       C2473   1.423       .  A
C495       C2476   1.391       .  A
C495        H504   1.078       .  S
C496        C497   1.398       .  A
C496       C2475   1.393       .  A
C496        H505   1.084       .  S
C497        C498   1.400       .  A
C498        H506   1.085       .  S
C507        C508   1.398       .  A
C507        C512   1.399       .  A
C508        C509   1.394       .  A
C508        H521   1.083       .  S
C509        C510   1.415       .  A
C509        H522   1.078       .  S
C510        C516   1.424       .  A
C510        C511   1.422       .  A
C511        C513   1.399       .  A
C511        C512   1.400       .  A
C512        H523   1.085       .  S
C513        C514   1.388       .  A
C513        H524   1.084       .  S
C514        C515   1.398       .  A
C514        H525   1.084       .  S
C515        C516   1.421       .  A
C515        C520   1.399       .  A
C516        C517   1.414       .  A
C517        C518   1.393       .  A
C517        H526   1.078       .  S
C518        C519   1.398       .  A
C518        H527   1.084       .  S
C519        C520   1.399       .  A
C520        H528   1.083       .  S
C529        C530   1.403       .  A
C529        C534   1.399       .  A
C530        C531   1.399       .  A
C530        H543   1.084       .  S
C531        C532   1.414       .  A
C531        H544   1.078       .  S
C532        C533   1.426       .  A
C532       C1528   1.436       .  A
C533        C535   1.399       .  A
C533        C534   1.412       .  A
C534        H545   1.085       .  S
C535       C1526   1.392       .  A
C535        H546   1.084       .  S
C536        C537   1.402       .  A
C536       C1525   1.395   1_545  A
C536        H547   1.084       .  S
C537        C538   1.421       .  A
C537        C542   1.411       .  A
C538        C539   1.420       .  A
C538       C1522   1.439   1_545  A
C539        C540   1.406       .  A
C539        H548   1.078       .  S
C540        C541   1.398       .  A
C540        H549   1.083       .  S
C541        C542   1.407       .  A
C542        H550   1.085       .  S
C551        C552   1.401       .  A
C551        C556   1.402       .  A
C552        C553   1.399       .  A
C552        H565   1.084       .  S
C553        C554   1.414       .  A
C553        H566   1.078       .  S
C554        C555   1.425       .  A
C554       C2540   1.437   1_455  A
C555        C557   1.400       .  A
C555        C556   1.415       .  A
C556        H567   1.085       .  S
C557        C558   1.394   1_455  A
C557        H568   1.084       .  S
C558       C2539   1.402       .  A
C558        H569   1.084       .  S
C559        C560   1.421       .  A
C559        C564   1.410       .  A
C559       C2538   1.402       .  A
C560        C561   1.420       .  A
C560       C2534   1.439       .  A
C561        C562   1.407       .  A
C561        H570   1.078       .  S
C562        C563   1.399       .  A
C562        H571   1.083       .  S
C563        C564   1.407       .  A
C564        H572   1.085       .  S
C573        C574   1.398       .  A
C573        C578   1.405       .  A
C574        C575   1.405       .  A
C574        H587   1.083       .  S
C575        C576   1.419       .  A
C575        H588   1.078       .  S
C576        C582   1.436       .  A
C576        C577   1.420       .  A
C577        C579   1.401       .  A
C577        C578   1.407       .  A
C578        H589   1.085       .  S
C579        C580   1.392       .  A
C579        H590   1.084       .  S
C580        C581   1.399       .  A
C580        H591   1.084       .  S
C581        C582   1.425       .  A
C581        C586   1.412       .  A
C582        C583   1.414       .  A
C583        C584   1.399       .  A
C583        H592   1.078       .  S
C584        C585   1.403       .  A
C584        H593   1.084       .  S
C585        C586   1.400       .  A
C586        H594   1.085       .  S
C595        C596   1.403       .  A
C595        C600   1.401       .  A
C596        C597   1.395       .  A
C596        H609   1.080       .  S
C597        C598   1.413       .  A
C597        H610   1.078       .  S
C598        C604   1.424       .  A
C598        C599   1.418       .  A
C599        C601   1.399       .  A
C599        C600   1.398       .  A
C600        H611   1.077       .  S
C601        C602   1.388       .  A
C601        H612   1.084       .  S
C602        C603   1.398       .  A
C602        H613   1.084       .  S
C603        C604   1.423       .  A
C603        C608   1.402       .  A
C604        C605   1.412       .  A
C605        C606   1.393       .  A
C605        H614   1.078       .  S
C606        C607   1.402       .  A
C606        H615   1.084       .  S
C607        C608   1.398       .  A
C608        H616   1.085       .  S
C617        C618   1.398       .  A
C617        C622   1.395       .  A
C618        C619   1.397       .  A
C618       H1621   1.083       .  S
C619        C620   1.417       .  A
C619        H632   1.077       .  S
C620        C626   1.429       .  A
C620        C621   1.422       .  A
C621        C623   1.399       .  A
C621        C622   1.401       .  A
C622       H2613   1.081   1_455  S
C623        C624   1.389       .  A
C623       H2614   1.084   1_455  S
C624        C625   1.399       .  A
C624        H635   1.084       .  S
C625        C626   1.424       .  A
C625        C630   1.404       .  A
C626        C627   1.415       .  A
C627        C628   1.396       .  A
C627        H636   1.077       .  S
C628        C629   1.398       .  A
C628        H637   1.084       .  S
C629        C630   1.397       .  A
C630        H638   1.085       .  S
H631       C1608   1.082       .  S
H633       C2602   1.080       .  S
H634       C2603   1.084       .  S
C639        C640   1.398       .  A
C639        C644   1.399       .  A
C640        C641   1.395       .  A
C640       H2633   1.084   1_455  S
C641        C642   1.414       .  A
C641        H654   1.078       .  S
C642        C648   1.427       .  A
C642        C643   1.422       .  A
C643        C645   1.399       .  A
C643        C644   1.402       .  A
C644        H655   1.083       .  S
C645        C646   1.389       .  A
C645        H656   1.084       .  S
C646        C647   1.399       .  A
C646        H657   1.084       .  S
C647        C648   1.422       .  A
C647        C652   1.402       .  A
C648        C649   1.416       .  A
C649        C650   1.397       .  A
C649        H658   1.078       .  S
C650        C651   1.398       .  A
C650        H659   1.084       .  S
C651        C652   1.399       .  A
C652        H660   1.085       .  S
H653       C2620   1.084       .  S
C661        C662   1.395       .  A
C661        C666   1.401       .  A
C662        C663   1.392       .  A
C662        H675   1.084       .  S
C663        C664   1.414       .  A
C663        H676   1.078       .  S
C664        C670   1.422       .  A
C664        C665   1.420       .  A
C665        C667   1.401       .  A
C665        C666   1.404       .  A
C666        H677   1.085       .  S
C667        C668   1.393       .  A
C667        H678   1.084       .  S
C668        C669   1.400       .  A
C668        H679   1.084       .  S
C669        C670   1.423       .  A
C669        C674   1.405       .  A
C670        C671   1.412       .  A
C671        C672   1.389       .  A
C671        H680   1.078       .  S
C672        C673   1.394       .  A
C672        H681   1.080       .  S
C673        C674   1.398       .  A
C674        H682   1.085       .  S
C683        C684   1.400       .  A
C683        C688   1.402       .  A
C684        C685   1.394       .  A
C684        H697   1.080       .  S
C685        C686   1.414       .  A
C685        H698   1.078       .  S
C686        C692   1.423       .  A
C686        C687   1.418       .  A
C687        C689   1.400       .  A
C687        C688   1.398       .  A
C688        H699   1.077       .  S
C689        C690   1.389       .  A
C689        H700   1.084       .  S
C690        C691   1.399       .  A
C690        H701   1.084       .  S
C691        C692   1.423       .  A
C691        C696   1.403       .  A
C692        C693   1.411       .  A
C693        C694   1.390       .  A
C693        H702   1.078       .  S
C694        C695   1.400       .  A
C694        H703   1.084       .  S
C695        C696   1.399       .  A
C696        H704   1.085       .  S
C705        C706   1.399       .  A
C705        C710   1.398       .  A
C706        C707   1.394       .  A
C706        H719   1.081       .  S
C707        C708   1.414       .  A
C707        H720   1.078       .  S
C708        C714   1.424       .  A
C708        C709   1.421       .  A
C709        C711   1.399       .  A
C709        C710   1.400       .  A
C710        H721   1.085       .  S
C711        C712   1.389       .  A
C711        H722   1.084       .  S
C712        C713   1.399       .  A
C712        H723   1.084       .  S
C713        C714   1.422       .  A
C713        C718   1.402       .  A
C714        C715   1.413       .  A
C715        C716   1.394       .  A
C715        H724   1.078       .  S
C716        C717   1.400       .  A
C716        H725   1.084       .  S
C717        C718   1.398       .  A
C718        H726   1.085       .  S
C727        C728   1.402       .  A
C727        C732   1.399       .  A
C728        C729   1.398       .  A
C728        H741   1.084   1_455  S
C729        C730   1.413       .  A
C729        H742   1.078       .  S
C730        C736   1.435       .  A
C730        C731   1.425       .  A
C731        C733   1.399       .  A
C731        C732   1.411       .  A
C732       H1733   1.084       .  S
C733        C734   1.392       .  A
C733        H744   1.084       .  S
C734        C735   1.401       .  A
C734        H745   1.084       .  S
C735        C736   1.421       .  A
C735        C740   1.407       .  A
C736        C737   1.419       .  A
C737        C738   1.403       .  A
C737        H746   1.078       .  S
C738        C739   1.398       .  A
C738        H747   1.083       .  S
C739        C740   1.404       .  A
C740        H748   1.085       .  S
H743       C1722   1.084   1_545  S
C749        C750   1.398       .  A
C749        C754   1.404       .  A
C750        C751   1.405       .  A
C750        H763   1.083       .  S
C751        C752   1.420       .  A
C751        H764   1.077       .  S
C752        C758   1.437       .  A
C752        C753   1.421       .  A
C753        C755   1.401       .  A
C753        C754   1.407       .  A
C754        H765   1.085       .  S
C755        C756   1.392       .  A
C755        H766   1.084       .  S
C756        C757   1.400       .  A
C756       H1757   1.084       .  S
C757        C758   1.426       .  A
C757        C762   1.414       .  A
C758        C759   1.414       .  A
C759        C760   1.399       .  A
C759        H768   1.077       .  S
C760        C761   1.402       .  A
C760        H769   1.084       .  S
C761        C762   1.401       .  A
C762       H1760   1.084       .  S
H767       C1746   1.084   1_545  S
H770       C1752   1.084   1_545  S
C771        C772   1.401       .  A
C771        C776   1.401       .  A
C772        C773   1.399       .  A
C772        H785   1.084       .  S
C773        C774   1.414       .  A
C773        H786   1.078       .  S
C774        C780   1.436       .  A
C774        C775   1.425       .  A
C775        C777   1.400       .  A
C775        C776   1.413       .  A
C776        H787   1.084       .  S
C777        C778   1.393       .  A
C777        H788   1.084       .  S
C778        C779   1.401       .  A
C778        H789   1.084       .  S
C779        C780   1.421       .  A
C779        C784   1.408       .  A
C780        C781   1.419       .  A
C781        C782   1.404       .  A
C781        H790   1.078       .  S
C782        C783   1.398       .  A
C782        H791   1.083       .  S
C783        C784   1.405       .  A
C784        H792   1.085   1_455  S
C793        C794   1.402       .  A
C793        C798   1.400       .  A
C794        C795   1.395       .  A
C794        H807   1.083       .  S
C795        C796   1.414       .  A
C795        H808   1.077       .  S
C796        C802   1.428       .  A
C796        C797   1.423       .  A
C797        C799   1.399       .  A
C797        C798   1.403       .  A
C798        H809   1.084       .  S
C799        C800   1.388       .  A
C799       H2790   1.084       .  S
C800        C801   1.398       .  A
C800        H811   1.084       .  S
C801        C802   1.423       .  A
C801        C806   1.400       .  A
C802        C803   1.417       .  A
C803        C804   1.395       .  A
C803        H812   1.077       .  S
C804        C805   1.395       .  A
C804        H813   1.083       .  S
C805        C806   1.394       .  A
C806        H814   1.085       .  S
H810       C2779   1.084       .  S
C815        C816   1.396       .  A
C815        C820   1.395       .  A
C816        C817   1.394       .  A
C816        H829   1.084       .  S
C817        C818   1.415       .  A
C817        H830   1.078       .  S
C818        C824   1.427       .  A
C818        C819   1.423       .  A
C819        C821   1.398       .  A
C819        C820   1.401       .  A
C820        H831   1.085       .  S
C821        C822   1.388       .  A
C821        H832   1.084       .  S
C822        C823   1.399       .  A
C822        H833   1.084       .  S
C823        C824   1.422       .  A
C823        C828   1.403       .  A
C824        C825   1.414       .  A
C825        C826   1.394       .  A
C825        H834   1.078       .  S
C826        C827   1.401       .  A
C826        H835   1.083       .  S
C827        C828   1.401       .  A
C828        H836   1.085       .  S
C837        C838   1.395       .  A
C837        C842   1.394       .  A
C838        C839   1.394       .  A
C838        H851   1.084       .  S
C839        C840   1.416       .  A
C839        H852   1.077       .  S
C840        C846   1.426       .  A
C840        C841   1.424       .  A
C841        C843   1.398       .  A
C841        C842   1.401       .  A
C842        H853   1.085       .  S
C843        C844   1.388       .  A
C843        H854   1.084       .  S
C844        C845   1.399       .  A
C844        H855   1.084       .  S
C845        C846   1.422       .  A
C845        C850   1.400       .  A
C846        C847   1.415       .  A
C847        C848   1.395       .  A
C847        H856   1.077       .  S
C848        C849   1.400       .  A
C848        H857   1.083       .  S
C849        C850   1.401       .  A
C850        H858   1.084       .  S
C859        C860   1.396       .  A
C859        C864   1.404       .  A
C860        C861   1.397       .  A
C860        H873   1.083       .  S
C861        C862   1.418       .  A
C861        H874   1.077       .  S
C862        C868   1.425       .  A
C862        C863   1.418       .  A
C863        C865   1.401       .  A
C863        C864   1.398       .  A
C864       H1865   1.085       .  S
C865        C866   1.390       .  A
C865       H1866   1.084       .  S
C866        C867   1.398       .  A
C866        H877   1.084       .  S
C867        C868   1.425       .  A
C867        C872   1.407       .  A
C868        C869   1.409       .  A
C869        C870   1.389       .  A
C869        H878   1.077       .  S
C870        C871   1.402       .  A
C870        H879   1.084       .  S
C871        C872   1.399       .  A
C872        H880   1.085       .  S
H875       C1854   1.084       .  S
H876       C1855   1.084       .  S
C881        C882   1.395       .  A
C881        C886   1.403       .  A
C882        C883   1.394       .  A
C882        H895   1.084       .  S
C883        C884   1.416       .  A
C883        H896   1.078       .  S
C884        C890   1.422       .  A
C884        C885   1.418       .  A
C885        C887   1.401       .  A
C885        C886   1.401       .  A
C886        H897   1.085       .  S
C887        C888   1.392       .  A
C887        H898   1.084       .  S
C888        C889   1.400       .  A
C888        H899   1.084       .  S
C889        C890   1.424       .  A
C889        C894   1.408       .  A
C890        C891   1.410       .  A
C891        C892   1.388       .  A
C891        H900   1.078       .  S
C892        C893   1.398       .  A
C892       H2881   1.084       .  S
C893        C894   1.399       .  A
C894        H902   1.085       .  S
H901       C2872   1.084       .  S
C903        C904   1.399       .  A
C903        C908   1.397       .  A
C904        C905   1.388       .  A
C904        H917   1.084       .  S
C905        C906   1.410       .  A
C905        H918   1.078       .  S
C906        C912   1.423       .  A
C906        C907   1.425       .  A
C907        C909   1.398       .  A
C907        C908   1.403       .  A
C908        H919   1.085       .  S
C909        C910   1.389       .  A
C909        H920   1.084       .  S
C910        C911   1.401       .  A
C910        H921   1.084       .  S
C911        C912   1.419       .  A
C911        C916   1.398       .  A
C912        C913   1.417       .  A
C913        C914   1.395       .  A
C913        H922   1.077       .  S
C914        C915   1.396       .  A
C914        H923   1.083       .  S
C915        C916   1.404       .  A
C916        H924   1.085       .  S
C925        C926   1.394       .  A
C925        C930   1.397       .  A
C926        C927   1.392       .  A
C926        H939   1.084       .  S
C927        C928   1.416       .  A
C927        H940   1.076       .  S
C928        C934   1.427       .  A
C928        C929   1.423       .  A
C929        C931   1.399       .  A
C929        C930   1.403       .  A
C930        H941   1.085       .  S
C931        C932   1.390   1_545  A
C931        H942   1.084       .  S
C932        C933   1.400       .  A
C932        H943   1.084       .  S
C933        C934   1.422   1_565  A
C933       C1928   1.405       .  A
C934       C1925   1.414       .  A
C935        C936   1.393       .  A
C935       C1924   1.415       .  A
C935        H944   1.076       .  S
C936        C937   1.398       .  A
C936        H945   1.084       .  S
C937        C938   1.402       .  A
C938       C1923   1.405       .  A
C938        H946   1.085       .  S
C947        C948   1.397       .  A
C947        C952   1.397       .  A
C948        C949   1.394       .  A
C948        H961   1.083       .  S
C949        C950   1.416       .  A
C949        H962   1.077       .  S
C950        C956   1.428       .  A
C950        C951   1.423       .  A
C951        C952   1.403       .  A
C951       C2933   1.399       .  A
C952        H963   1.085       .  S
C953        C954   1.391       .  A
C953       C2931   1.400       .  A
C953        H964   1.084       .  S
C954        C955   1.400       .  A
C954        H965   1.084       .  S
C955        C960   1.406   1_655  A
C955       C2936   1.423       .  A
C956        C957   1.414       .  A
C956       C2935   1.423       .  A
C957       C2938   1.394       .  A
C957        H966   1.077       .  S
C958        C959   1.400       .  A
C958       C2937   1.395       .  A
C958        H967   1.083       .  S
C959        C960   1.402       .  A
C960        H968   1.085       .  S
C969        C970   1.394       .  A
C969        C974   1.399       .  A
C970        C971   1.393       .  A
C970        H983   1.084       .  S
C971        C972   1.416       .  A
C971        H984   1.076       .  S
C972        C978   1.429       .  A
C972        C973   1.423       .  A
C973        C975   1.400       .  A
C973        C974   1.407       .  A
C974        H985   1.085       .  S
C975        C976   1.392       .  A
C975        H986   1.084       .  S
C976        C977   1.401       .  A
C976        H987   1.084       .  S
C977        C978   1.422       .  A
C977        C982   1.408       .  A
C978        C979   1.413       .  A
C979        C980   1.393       .  A
C979        H988   1.076       .  S
C980        C981   1.401       .  A
C980        H989   1.083       .  S
C981        C982   1.404       .  A
C982        H990   1.084       .  S
Zn991       O995   1.960       .  S
Zn991       O996   2.018       .  S
Zn991      O1000   2.051       .  S
Zn991      O1007   2.016       .  S
Zn992       O995   1.956       .  S
Zn992       O997   2.042       .  S
Zn992       O999   2.005       .  S
Zn992      O1003   2.017       .  S
Zn993       O995   1.897       .  S
Zn993       O998   1.947       .  S
Zn993      O1001   1.943       .  S
Zn993      O1004   1.947       .  S
Zn994       O995   1.955       .  S
Zn994      O1002   2.050       .  S
Zn994      O1005   2.010       .  S
Zn994      O1006   2.018       .  S
O996       C1008   1.275       .  A
O997       C1009   1.275       .  A
O998       C1010   1.265       .  A
O999       C1008   1.275       .  A
O1000      C1010   1.275       .  A
O1001      C1009   1.264       .  A
O1002      C1011   1.276       .  A
O1003      C1012   1.274       .  A
O1004      C1011   1.265       .  A
O1005      C1012   1.275       .  A
O1006      C1013   1.275       .  A
O1007      C1013   1.276       .  A
C1008      C1971   1.477       .  S
C1009      C1905   1.471       .  S
C1010      C1871   1.472       .  S
C1011      C1861   1.475       .  S
C1012      C1927   1.476       .  S
C1013      C1949   1.475       .  S
Zn1014     O1018   1.890       .  S
Zn1014     O2999   1.947   1_545  S
Zn1014     O1023   1.938   1_545  S
Zn1014     O2020   1.933       .  S
Zn1015     O2998   1.966   1_565  S
Zn1015     O3000   2.031   1_455  S
Zn1015     O1022   2.058       .  S
Zn1016     O1018   1.954   1_565  S
Zn1016     O1021   2.039       .  S
Zn1016     O1024   2.012       .  S
Zn1017     O2008   1.962   1_455  S
Zn1017     O3005   2.031   1_455  S
Zn1017     O1028   2.022       .  S
Zn1017     O1029   2.055       .  S
O1018     Zn2995   1.952   1_545  S
O1018     Zn2007   1.960       .  S
O1019     Zn2994   1.954   1_565  S
O1019      C1031   1.265       .  A
O1020     Zn2995   2.011       .  S
O1020      C1032   1.275       .  A
O1021      C1033   1.274       .  A
O1022      C1031   1.277       .  A
O1023      C1033   1.263       .  A
O1024      C1032   1.275       .  A
O1025     Zn2997   2.025       .  S
O1025      C1034   1.276       .  A
O1026      C1035   1.274       .  A
O1027      C1034   1.271       .  A
O1028      C1035   1.276       .  A
O1029      C1036   1.276       .  A
O1030     Zn2004   1.948   1_455  S
O1030      C1036   1.265       .  A
C1031      C1849   1.479       .  S
C1032      C1783   1.478       .  S
C1033      C1893   1.470       .  S
C1034      C1817   1.474       .  S
C1035      C1839   1.478       .  S
C1036      C1883   1.474       .  S
C1037      H1038   1.110       .  S
C1037      C1043   1.554       .  S
C1037      C1042   1.556       .  S
C1037      C1041   1.561       .  S
C1039      H1040   1.110       .  S
C1039      C1045   1.522       .  S
C1039      C1044   1.522       .  S
C1039      C1046   1.523       .  S
C1041      C1044   1.381       .  D
C1041      C1729   1.495       .  S
C1042      C1045   1.370       .  D
C1042      C1739   1.497       .  S
C1043      C1046   1.375       .  D
C1043      C1761   1.491       .  S
C1044      C1673   1.492       .  S
C1045      C1663   1.472       .  S
C1046      C1695   1.481       .  S
C1047      H1048   1.110       .  S
C1047      C1053   1.526   1_545  S
C1047      C3032   1.524   1_545  S
C1047      C2041   1.520       .  S
C1049      H1050   1.110       .  S
C1049      C3035   1.554       .  S
C1049      C2044   1.561   1_565  S
C1049      C1056   1.560       .  S
C1051      C2037   1.523       .  S
C1051      C1054   1.375       .  D
C1051      C1629   1.481       .  S
C1052      C3027   1.530   1_565  S
C1052      C1055   1.381       .  D
C1052      C1607   1.495       .  S
C1053      C1056   1.381       .  D
C1053      C1585   1.492       .  S
C1054      C2039   1.557       .  S
C1054      C1773   1.493       .  S
C1055      C3029   1.554   1_565  S
C1055      C1717   1.492       .  S
C1056      C1751   1.496       .  S
C1057      H1058   1.110       .  S
C1057      C1063   1.557       .  S
C1057      C1062   1.559       .  S
C1057      C1061   1.561       .  S
C1059      H1060   1.111       .  S
C1059      C1065   1.524       .  S
C1059      C1064   1.524       .  S
C1059      C1066   1.521       .  S
C1061      C1064   1.378       .  D
C1061      C1575   1.494       .  S
C1062      C1065   1.376       .  D
C1062      C1519   1.497       .  S
C1063      C1066   1.375       .  D
C1063      C1541   1.498       .  S
C1064      C1509   1.489       .  S
C1065      C1465   1.484       .  S
C1066      C1475   1.479       .  S
C1067      H1068   1.112       .  S
C1067      C1073   1.519       .  S
C1067      C1072   1.521       .  S
C1067      C1071   1.518       .  S
C1069      H1070   1.110       .  S
C1069      C1075   1.555       .  S
C1069      C1074   1.557       .  S
C1069      C1076   1.562       .  S
C1071      C1074   1.371       .  D
C1071      C1959   1.471       .  S
C1072      C1075   1.374       .  D
C1072      C1915   1.474       .  S
C1073      C1076   1.375       .  D
C1073      C1937   1.483       .  S
C1074      C1563   1.493       .  S
C1075      C1531   1.492       .  S
C1076      C1553   1.492       .  S
Zn1077     O1081   1.959       .  S
Zn1077     O1082   2.020       .  S
Zn1077     O1086   2.014       .  S
Zn1077     O1093   2.015       .  S
Zn1078     O1081   1.955       .  S
Zn1078     O1083   2.011       .  S
Zn1078     O1085   1.994       .  S
Zn1078     O1089   2.030       .  S
Zn1079     O1081   1.963       .  S
Zn1079     O1084   2.024       .  S
Zn1079     O1087   2.003       .  S
Zn1079     O1090   2.024       .  S
Zn1080     O1081   1.940       .  S
Zn1080     O1088   1.986       .  S
Zn1080     O1091   2.001       .  S
Zn1080     O1092   1.995       .  S
O1082      C1094   1.274       .  A
O1083      C1095   1.274       .  A
O1084      C1096   1.274       .  A
O1085      C1094   1.271       .  A
O1086      C1096   1.273       .  A
O1087      C1095   1.273       .  A
O1088      C1097   1.271       .  A
O1089      C1098   1.274       .  A
O1090      C1097   1.274       .  A
O1091      C1098   1.271       .  A
O1092      C1099   1.271       .  A
O1093      C1099   1.274       .  A
C1094      C1431   1.478       .  S
C1095      C1421   1.478       .  S
C1096      C1399   1.485       .  S
C1097      C1487   1.467       .  S
C1098      C1497   1.477       .  S
C1099      C1453   1.471       .  S
Zn1100     O3085   2.013   1_455  S
Zn1100     O1109   2.019       .  S
Zn1101     O2094   1.941   1_565  S
Zn1101     O1106   2.015       .  S
Zn1101     O1108   1.997       .  S
Zn1102     O1104   1.936       .  S
Zn1102     O2100   1.997   1_455  S
Zn1102     O1113   1.988       .  S
Zn1103     O1104   1.966       .  S
Zn1103     O1111   2.024       .  S
Zn1103     O3094   2.042       .  S
Zn1103     O1115   2.011       .  S
O1104     Zn2091   1.942   1_455  S
O1105     Zn3080   2.014       .  S
O1105      C1117   1.274       .  A
O1106      C1118   1.272       .  A
O1107      C1119   1.269       .  A
O1108      C1117   1.272       .  A
O1109      C1119   1.273       .  A
O1110     Zn2092   1.986   1_565  S
O1110      C1118   1.268       .  A
O1111      C1120   1.276       .  A
O1112      C1121   1.272       .  A
O1113      C1120   1.271       .  A
O1114     Zn3083   2.048       .  S
O1114      C1121   1.277       .  A
O1115      C1122   1.273       .  A
O1116      C1122   1.272       .  A
C1117      C1409   1.477       .  S
C1118      C1651   1.463       .  S
C1119      C1685   1.468       .  S
C1120      C1707   1.469       .  S
C1121      C1387   1.487       .  S
C1122      C1443   1.478       .  S
C1123      H1124   1.110       .  S
C1123      C1129   1.555       .  S
C1123      C1128   1.555       .  S
C1123      C1127   1.556       .  S
C1125      H1126   1.113       .  S
C1125      C1131   1.519       .  S
C1125      C1130   1.519       .  S
C1125      C1132   1.519       .  S
C1127      C1130   1.372       .  D
C1127      C1365   1.486       .  S
C1128      C1131   1.370       .  D
C1128      C1321   1.493       .  S
C1129      C1132   1.373       .  D
C1129      C1355   1.491       .  S
C1130      C1827   1.477       .  S
C1131      C1805   1.464       .  S
C1132      C1795   1.470       .  S
C1133      H1134   1.113       .  S
C1133      C3119   1.520       .  S
C1133      C1137   1.518       .  S
C1135      H1136   1.110       .  S
C1135      C2131   1.558   1_455  S
C1135      C3120   1.556   1_455  S
C1135      C1142   1.557       .  S
C1137      C1140   1.371       .  D
C1137      C1289   1.470       .  S
C1138      C1141   1.375       .  D
C1138      C1255   1.477       .  S
C1139      C3113   1.517       .  S
C1139      C1142   1.372       .  D
C1139      C1299   1.473       .  S
C1140      C3115   1.559       .  S
C1140      C1333   1.495       .  S
C1141      C2125   1.555   1_565  S
C1141      C1343   1.492       .  S
C1142      C1377   1.487       .  S
Zn1143     O1147   1.951       .  S
Zn1143     O1148   2.014       .  S
Zn1143     O1152   2.002       .  S
Zn1143     O1159   2.010       .  S
Zn1144     O1147   1.949       .  S
Zn1144     O1149   1.990       .  S
Zn1144     O1151   1.990       .  S
Zn1144     O1155   2.014       .  S
Zn1145     O1147   1.948       .  S
Zn1145     O1150   2.009       .  S
Zn1145     O1153   2.003       .  S
Zn1145     O1156   2.013       .  S
Zn1146     O1147   1.936       .  S
Zn1146     O1154   1.999       .  S
Zn1146     O1157   1.985       .  S
Zn1146     O1158   1.993       .  S
O1148      C1160   1.273       .  A
O1149      C1161   1.270       .  A
O1150      C1162   1.272       .  A
O1151      C1160   1.271       .  A
O1152      C1162   1.271       .  A
O1153      C1161   1.272       .  A
O1154      C1163   1.272       .  A
O1155      C1164   1.272       .  A
O1156      C1163   1.274       .  A
O1157      C1164   1.269       .  A
O1158      C1165   1.271       .  A
O1159      C1165   1.274       .  A
C1160      C1211   1.472       .  S
C1161      C1189   1.471       .  S
C1162      C1233   1.471       .  S
C1163      C1641   1.469       .  S
C1164      C1597   1.468       .  S
C1165      C1619   1.469       .  S
Zn1166     O1170   1.909       .  S
Zn1166     O1171   1.963       .  S
Zn1166     O1175   1.975       .  S
Zn1166     O1182   1.961       .  S
Zn1167     O1170   1.961       .  S
Zn1167     O1172   2.019       .  S
Zn1167     O1174   2.043       .  S
Zn1167     O1178   2.011       .  S
Zn1168     O1170   1.958       .  S
Zn1168     O1173   2.031       .  S
Zn1168     O1176   1.994       .  S
Zn1168     O1179   2.030       .  S
Zn1169     O1170   1.950       .  S
Zn1169     O1177   1.995       .  S
Zn1169     O1180   2.011       .  S
Zn1169     O1181   2.034       .  S
O1171      C1183   1.267       .  A
O1172      C1184   1.275       .  A
O1173      C1185   1.273       .  A
O1174      C1183   1.275       .  A
O1175      C1185   1.268       .  A
O1176      C1184   1.272       .  A
O1177      C1186   1.274       .  A
O1178      C1187   1.274       .  A
O1179      C1186   1.276       .  A
O1180      C1187   1.274       .  A
O1181      C1188   1.273       .  A
O1182      C1188   1.267       .  A
C1183      C1245   1.470       .  S
C1184      C1267   1.467       .  S
C1185      C1201   1.466       .  S
C1186      C1311   1.477       .  S
C1187      C1277   1.480       .  S
C1188      C1223   1.464       .  S
C1189      C1190   1.401       .  A
C1189      C1194   1.398       .  A
C1190      C1191   1.394       .  A
C1190      H1203   1.083       .  S
C1191      C1192   1.412       .  A
C1191      H1204   1.078       .  S
C1192      C1198   1.424       .  A
C1192      C1193   1.422       .  A
C1193      C1195   1.398       .  A
C1193      C1194   1.400       .  A
C1194      H1205   1.085       .  S
C1195      C1196   1.388       .  A
C1195      H1206   1.084       .  S
C1196      C1197   1.399       .  A
C1196      H1207   1.084       .  S
C1197      C1198   1.420       .  A
C1197      C1202   1.398   1_556  A
C1198      C1199   1.416   1_556  A
C1199      C1200   1.397       .  A
C1199      H1208   1.078       .  S
C1200      C1201   1.397       .  A
C1200      H1209   1.083       .  S
C1201      C1202   1.398       .  A
C1202      H1210   1.085       .  S
C1211      C1212   1.400       .  A
C1211      C1216   1.399       .  A
C1212      C1213   1.396       .  A
C1212      H1225   1.083       .  S
C1213      C1214   1.414       .  A
C1213      H1226   1.078       .  S
C1214      C1215   1.422       .  A
C1215      C1217   1.398   1_565  A
C1215      C1216   1.399       .  A
C1216      H1227   1.085       .  S
C1217      H1228   1.084       .  S
C1218      C1219   1.399       .  A
C1218      H1229   1.084       .  S
C1219      C1220   1.420       .  A
C1219      C1224   1.397   1_556  A
C1220      C1221   1.417   1_556  A
C1221      C1222   1.398       .  A
C1221      H1230   1.078       .  S
C1222      C1223   1.396       .  A
C1222      H1231   1.083       .  S
C1223      C1224   1.399       .  A
C1224      H1232   1.085       .  S
C1233      C1234   1.398       .  A
C1233      C1238   1.400       .  A
C1234      C1235   1.396       .  A
C1234      H1247   1.084       .  S
C1235      C1236   1.417       .  A
C1235      H1248   1.077   1_455  S
C1236      C3222   1.428   1_455  A
C1236      C1237   1.421       .  A
C1237      C1239   1.399       .  A
C1237      C1238   1.402       .  A
C1238      H1249   1.085       .  S
C1239      C3220   1.389   1_556  A
C1239      H1250   1.084       .  S
C1240      C3219   1.390   1_554  A
C1240      C1241   1.399       .  A
C1240      H1251   1.084       .  S
C1241      C1242   1.425   1_554  A
C1241      C1246   1.407       .  A
C1242      C3216   1.426       .  A
C1242      C1243   1.412       .  A
C1243      C1244   1.389   1_556  A
C1243      H1252   1.076       .  S
C1244      C1245   1.399       .  A
C1244      H1253   1.084       .  S
C1245      C1246   1.399       .  A
C1246      H1254   1.085       .  S
C1255      C1256   1.396       .  A
C1255      C1260   1.398       .  A
C1256      C1257   1.393       .  A
C1256      H1269   1.083       .  S
C1257      C1258   1.415       .  A
C1257      H1270   1.077       .  S
C1258      C1264   1.426       .  A
C1258      C1259   1.423       .  A
C1259      C1261   1.398       .  A
C1259      C1260   1.401       .  A
C1260      H3251   1.084       .  S
C1261      C1262   1.389       .  A
C1261      H3252   1.084       .  S
C1262      C1263   1.399       .  A
C1262      H1273   1.084       .  S
C1263      C1264   1.423       .  A
C1263      C1268   1.403       .  A
C1264      C1265   1.414       .  A
C1265      C1266   1.392       .  A
C1265      H1274   1.077       .  S
C1266      C1267   1.397       .  A
C1266      H1275   1.084       .  S
C1267      C1268   1.398       .  A
C1268      H1276   1.085       .  S
H1271      C3240   1.085       .  S
H1272      C3241   1.084       .  S
C1277      C1278   1.401       .  A
C1277      C1282   1.402       .  A
C1278      C1279   1.394       .  A
C1278      H1291   1.083       .  S
C1279      C1280   1.414       .  A
C1279      H1292   1.077       .  S
C1280      C1286   1.427       .  A
C1280      C1281   1.422       .  A
C1281      C1283   1.400       .  A
C1281      C1282   1.403       .  A
C1282      H1293   1.084       .  S
C1283      C1284   1.389       .  A
C1283      H1294   1.084       .  S
C1284      C1285   1.399       .  A
C1284      H1295   1.084       .  S
C1285      C1286   1.424       .  A
C1285      C1290   1.403       .  A
C1286      C1287   1.416       .  A
C1287      C1288   1.393       .  A
C1287      H1296   1.077       .  S
C1288      C1289   1.394       .  A
C1288      H1297   1.084       .  S
C1289      C1290   1.395       .  A
C1290      H1298   1.085       .  S
C1299      C1300   1.393       .  A
C1299      C1304   1.399       .  A
C1300      C1301   1.391       .  A
C1300      H1313   1.084       .  S
C1301      C1302   1.415       .  A
C1301      H1314   1.076       .  S
C1302      C1308   1.426       .  A
C1302      C1303   1.423       .  A
C1303      C1305   1.400       .  A
C1303      C1304   1.405       .  A
C1304      H1315   1.085       .  S
C1305      C1306   1.392       .  A
C1305      H1316   1.084       .  S
C1306      C1307   1.401       .  A
C1306      H1317   1.084       .  S
C1307      C1308   1.423       .  A
C1307      C1312   1.408       .  A
C1308      C1309   1.412       .  A
C1309      C1310   1.389       .  A
C1309      H1318   1.076       .  S
C1310      C1311   1.399       .  A
C1310      H1319   1.083       .  S
C1311      C1312   1.403       .  A
C1312      H1320   1.084       .  S
C1321      C1322   1.402       .  A
C1321      C1326   1.402       .  A
C1322      C1323   1.399       .  A
C1322      H1335   1.084       .  S
C1323      C1324   1.414       .  A
C1323      H1336   1.078       .  S
C1324      C1330   1.437       .  A
C1324      C1325   1.425       .  A
C1325      C1327   1.400       .  A
C1325      C1326   1.415       .  A
C1326      H1337   1.085       .  S
C1327      C1328   1.394       .  A
C1327      H1338   1.084       .  S
C1328      C1329   1.402       .  A
C1328      H3319   1.084       .  S
C1329      C1330   1.421       .  A
C1329      C1334   1.409       .  A
C1330      C1331   1.420       .  A
C1331      C1332   1.405       .  A
C1331      H1340   1.078       .  S
C1332      C1333   1.398       .  A
C1333      C1334   1.406       .  A
C1334      H3322   1.085       .  S
H1339      C3308   1.084       .  S
H1342      C3314   1.085   1_455  S
C1343      C1344   1.403       .  A
C1343      C1348   1.399       .  A
C1344      C1345   1.400       .  A
C1344      H1357   1.084       .  S
C1345      C1346   1.415       .  A
C1345      H1358   1.078       .  S
C1346      C1352   1.437       .  A
C1346      C1347   1.426       .  A
C1347      C1349   1.399       .  A
C1347      C1348   1.412       .  A
C1348      H3339   1.085       .  S
C1349      C1350   1.391       .  A
C1349      H3340   1.084       .  S
C1350      C1351   1.400       .  A
C1350      H1361   1.084       .  S
C1351      C1352   1.422       .  A
C1351      C1356   1.407       .  A
C1352      C1353   1.420       .  A
C1353      C1354   1.405       .  A
C1353      H1362   1.078       .  S
C1354      C1355   1.398       .  A
C1354      H1363   1.083       .  S
C1355      C1356   1.403       .  A
C1356      H1364   1.085       .  S
H1359      C3328   1.084   1_455  S
H1360      C3329   1.084   1_455  S
C1365      C1366   1.401       .  A
C1365      C1370   1.399       .  A
C1366      C1367   1.397       .  A
C1366      H1379   1.084       .  S
C1367      C1368   1.413       .  A
C1367      H1380   1.078       .  S
C1368      C1374   1.434       .  A
C1368      C1369   1.426       .  A
C1369      C1371   1.399       .  A
C1369      C1370   1.411       .  A
C1370      H1381   1.085       .  S
C1371      C1372   1.392       .  A
C1371      H1382   1.084       .  S
C1372      C1373   1.400       .  A
C1372      H1383   1.084       .  S
C1373      C1374   1.421       .  A
C1373      C1378   1.405       .  A
C1374      C1375   1.419       .  A
C1375      C1376   1.403       .  A
C1375      H1384   1.078       .  S
C1376      C1377   1.397       .  A
C1376      H1385   1.083       .  S
C1377      C1378   1.403       .  A
C1378      H1386   1.085       .  S
C1387      C1388   1.404       .  A
C1387      C1392   1.404       .  A
C1388      C1389   1.393       .  A
C1388      H1401   1.083       .  S
C1389      C1390   1.411       .  A
C1389      H1402   1.078       .  S
C1390      C1396   1.429       .  A
C1390      C1391   1.423       .  A
C1391      C1393   1.400       .  A
C1391      C1392   1.410       .  A
C1392      H1403   1.084       .  S
C1393      C1394   1.392       .  A
C1393      H1404   1.084       .  S
C1394      C1395   1.400       .  A
C1394      H1405   1.084       .  S
C1395      C1396   1.421       .  A
C1395      C1400   1.406       .  A
C1396      C1397   1.415       .  A
C1397      C1398   1.396       .  A
C1397      H1406   1.078       .  S
C1398      C1399   1.402       .  A
C1398      H1407   1.083       .  S
C1399      C1400   1.404       .  A
C1400      H1408   1.084       .  S
C1409      C1410   1.401       .  A
C1409      C1414   1.401       .  A
C1410      C1411   1.394       .  A
C1410      H1423   1.083       .  S
C1411      C1412   1.414       .  A
C1411      H1424   1.077       .  S
C1412      C1418   1.428       .  A
C1412      C1413   1.422       .  A
C1413      C1415   1.399       .  A
C1413      C1414   1.403       .  A
C1414      H1425   1.084       .  S
C1415      C1416   1.389       .  A
C1415      H1426   1.084       .  S
C1416      C1417   1.399       .  A
C1416      H1427   1.084       .  S
C1417      C1418   1.422       .  A
C1417      C1422   1.403       .  A
C1418      C1419   1.414       .  A
C1419      C1420   1.394       .  A
C1419      H1428   1.077       .  S
C1420      C1421   1.400       .  A
C1420      H1429   1.083       .  S
C1421      C1422   1.402       .  A
C1422      H1430   1.085       .  S
C1431      C1432   1.400       .  A
C1431      C1436   1.403       .  A
C1432      C1433   1.395       .  A
C1432      H1445   1.083       .  S
C1433      C1434   1.415       .  A
C1433      H1446   1.078       .  S
C1434      C1440   1.426       .  A
C1434      C1435   1.420       .  A
C1435      C1437   1.400       .  A
C1435      C1436   1.401       .  A
C1436      H1447   1.084       .  S
C1437      C1438   1.389       .  A
C1437      H1448   1.084       .  S
C1438      C1439   1.399       .  A
C1438      H1449   1.084       .  S
C1439      C1440   1.422       .  A
C1439      C1444   1.403       .  A
C1440      C1441   1.412       .  A
C1441      C1442   1.393       .  A
C1441      H1450   1.078       .  S
C1442      C1443   1.402       .  A
C1442      H1451   1.083       .  S
C1443      C1444   1.402       .  A
C1444      H1452   1.085       .  S
C1453      C1454   1.398       .  A
C1453      C1458   1.401       .  A
C1454      C1455   1.393       .  A
C1454      H1467   1.083       .  S
C1456      C1462   1.427       .  A
C1457      C1459   1.400       .  A
C1457      C1458   1.402       .  A
C1458      H1469   1.085       .  S
C1459      H1470   1.084       .  S
C1460      C1461   1.399       .  A
C1460      H1471   1.084       .  S
C1461      C1462   1.423       .  A
C1461      C1466   1.403       .  A
C1462      C1463   1.413       .  A
C1463      C1464   1.393       .  A
C1463      H1472   1.078       .  S
C1464      C1465   1.399       .  A
C1464      H1473   1.084       .  S
C1465      C1466   1.400       .  A
C1466      H1474   1.083       .  S
C1475      C1476   1.397       .  A
C1475      C1480   1.400       .  A
C1476      C1477   1.391       .  A
C1476      H1489   1.083       .  S
C1477      C1478   1.414       .  A
C1477      H1490   1.077       .  S
C1478      C1484   1.425       .  A
C1478      C1479   1.422       .  A
C1479      C1481   1.400       .  A
C1479      C1480   1.404       .  A
C1480      H1491   1.085       .  S
C1481      C3462   1.392       .  A
C1481      H1492   1.084       .  S
C1482      C3461   1.392       .  A
C1482      C1483   1.400       .  A
C1482      H1493   1.084       .  S
C1483      C3464   1.423       .  A
C1483      C1488   1.406       .  A
C1484      C3463   1.423       .  A
C1484      C1485   1.413   1_455  A
C1485      C3466   1.391       .  A
C1485      H1494   1.077       .  S
C1486      C3465   1.389       .  A
C1486      C1487   1.397       .  A
C1486      H1495   1.084       .  S
C1487      C1488   1.400       .  A
C1488      H1496   1.085       .  S
C1497      C1498   1.400       .  A
C1497      C1502   1.401       .  A
C1498      C1499   1.398       .  A
C1498      H1511   1.083       .  S
C1499      C1500   1.416       .  A
C1499      H1512   1.078       .  S
C1500      C1506   1.429       .  A
C1500      C1501   1.422       .  A
C1501      C1503   1.400       .  A
C1501      C1502   1.403       .  A
C1502      H1513   1.085       .  S
C1503      C1504   1.389       .  A
C1503      H1514   1.084       .  S
C1504      C1505   1.399       .  A
C1504      H1515   1.084       .  S
C1505      C1506   1.422       .  A
C1505      C1510   1.403       .  A
C1506      C1507   1.414       .  A
C1507      C1508   1.396       .  A
C1507      H1516   1.078       .  S
C1508      C1509   1.400       .  A
C1508      H1517   1.083       .  S
C1509      C1510   1.401       .  A
C1510      H1518   1.081       .  S
C1519      C1520   1.402       .  A
C1519      C1524   1.404       .  A
C1520      C1521   1.401       .  A
C1520      H1533   1.084       .  S
C1521      C1522   1.414       .  A
C1521      H1534   1.078       .  S
C1522      C1523   1.425       .  A
C1523      C1525   1.401       .  A
C1523      C1524   1.416       .  A
C1524      H1535   1.084       .  S
C1525      H1536   1.084       .  S
C1526      C1527   1.400       .  A
C1526      H1537   1.084       .  S
C1527      C1528   1.421       .  A
C1527      C1532   1.406       .  A
C1528      C1529   1.420       .  A
C1529      C1530   1.405       .  A
C1529      H1538   1.078       .  S
C1530      C1531   1.398       .  A
C1530      H1539   1.083       .  S
C1531      C1532   1.404       .  A
C1532      H1540   1.085       .  S
C1541      C1542   1.403       .  A
C1541      C1546   1.402       .  A
C1542      C1543   1.401       .  A
C1542      H1555   1.084       .  S
C1543      C1544   1.414       .  A
C1543      H1556   1.077       .  S
C1544      C3530   1.440   1_455  A
C1544      C1545   1.426       .  A
C1545      C1547   1.400       .  A
C1545      C1546   1.416       .  A
C1546      H1557   1.084       .  S
C1547      C1548   1.394   1_455  A
C1547      H1558   1.084       .  S
C1548      C3529   1.401       .  A
C1548      H1559   1.084       .  S
C1549      C3528   1.401       .  A
C1549      C1550   1.421       .  A
C1549      C1554   1.407       .  A
C1550      C3524   1.437       .  A
C1550      C1551   1.420       .  A
C1551      C1552   1.405       .  A
C1551      H1560   1.078       .  S
C1552      C1553   1.398       .  A
C1552      H1561   1.083       .  S
C1553      C1554   1.404       .  A
C1554      H1562   1.085       .  S
C1563      C1564   1.401       .  A
C1563      C1568   1.401       .  A
C1564      C1565   1.407       .  A
C1564      H1577   1.083       .  S
C1565      C1566   1.420       .  A
C1565      H1578   1.078       .  S
C1566      C1572   1.440       .  A
C1566      C1567   1.422       .  A
C1567      C1569   1.399       .  A
C1567      C1568   1.407       .  A
C1568      H1579   1.085       .  S
C1569      C1570   1.390       .  A
C1569      H1580   1.084       .  S
C1570      C1571   1.399       .  A
C1570      H1581   1.084       .  S
C1571      C1572   1.426       .  A
C1571      C1576   1.412       .  A
C1572      C1573   1.416       .  A
C1573      C1574   1.403       .  A
C1573      H1582   1.078       .  S
C1574      C1575   1.403       .  A
C1574      H1583   1.084       .  S
C1575      C1576   1.399       .  A
C1576      H1584   1.085       .  S
C1585      C1586   1.401       .  A
C1585      C1590   1.401       .  A
C1586      C1587   1.394       .  A
C1586      H1599   1.081       .  S
C1587      C1588   1.414       .  A
C1587      H1600   1.078       .  S
C1588      C1594   1.424       .  A
C1588      C1589   1.418       .  A
C1589      C1591   1.400       .  A
C1589      C1590   1.397       .  A
C1590      H1601   1.080       .  S
C1591      C1592   1.388       .  A
C1591      H1602   1.085       .  S
C1592      C1593   1.399       .  A
C1592      H1603   1.084       .  S
C1593      C1594   1.424       .  A
C1593      C1598   1.403       .  A
C1594      C1595   1.412       .  A
C1595      C1596   1.391       .  A
C1595      H1604   1.078       .  S
C1596      C1597   1.399       .  A
C1596      H1605   1.084       .  S
C1597      C1598   1.398       .  A
C1598      H1606   1.085       .  S
C1607      C1608   1.403       .  A
C1607      C1612   1.400       .  A
C1608      C1609   1.397       .  A
C1609      C1610   1.415       .  A
C1609      H1622   1.077       .  S
C1610      C1616   1.426       .  A
C1610      C1611   1.418       .  A
C1611      C1613   1.399       .  A
C1611      C1612   1.397       .  A
C1612      H3603   1.075       .  S
C1613      C1614   1.386       .  A
C1613      H3604   1.084       .  S
C1614      C1615   1.397       .  A
C1614      H1625   1.084       .  S
C1615      C1616   1.424       .  A
C1615      C1620   1.400       .  A
C1616      C1617   1.413       .  A
C1617      C1618   1.395       .  A
C1617      H1626   1.078       .  S
C1618      C1619   1.400       .  A
C1618      H1627   1.083       .  S
C1619      C1620   1.397       .  A
C1620      H1628   1.085       .  S
H1623      C3592   1.081       .  S
H1624      C3593   1.085       .  S
C1629      C1630   1.398       .  A
C1629      C1634   1.400       .  A
C1630      C1631   1.391       .  A
C1630      H3623   1.084   1_455  S
C1631      C1632   1.412       .  A
C1631      H1644   1.078       .  S
C1632      C1638   1.422       .  A
C1632      C1633   1.421       .  A
C1633      C1635   1.399       .  A
C1633      C1634   1.401       .  A
C1634      H1645   1.082       .  S
C1635      C1636   1.390       .  A
C1635      H1646   1.084       .  S
C1636      C1637   1.400       .  A
C1636      H1647   1.084       .  S
C1637      C1638   1.420       .  A
C1637      C1642   1.401       .  A
C1638      C1639   1.414       .  A
C1639      C1640   1.393       .  A
C1639      H1648   1.078       .  S
C1640      C1641   1.398       .  A
C1640      H1649   1.083       .  S
C1641      C1642   1.401       .  A
C1642      H1650   1.085       .  S
H1643      C3610   1.084       .  S
C1651      C1652   1.395       .  A
C1651      C1656   1.400       .  A
C1652      C1653   1.392       .  A
C1652      H1665   1.084       .  S
C1653      C1654   1.415       .  A
C1653      H1666   1.078       .  S
C1654      C1660   1.421       .  A
C1654      C1655   1.420       .  A
C1655      C1657   1.401       .  A
C1655      C1656   1.402       .  A
C1656      H1667   1.085       .  S
C1657      C1658   1.392       .  A
C1657      H1668   1.084       .  S
C1658      C1659   1.399       .  A
C1658      H1669   1.084       .  S
C1659      C1660   1.423       .  A
C1659      C1664   1.404       .  A
C1660      C1661   1.411       .  A
C1661      C1662   1.388       .  A
C1661      H1670   1.078       .  S
C1662      C1663   1.393       .  A
C1662      H1671   1.079       .  S
C1663      C1664   1.398       .  A
C1664      H1672   1.084       .  S
C1673      C1674   1.400       .  A
C1673      C1678   1.402       .  A
C1674      C1675   1.393       .  A
C1674      H1687   1.082       .  S
C1675      C1676   1.414       .  A
C1675      H1688   1.078       .  S
C1676      C1682   1.423       .  A
C1676      C1677   1.418       .  A
C1677      C1679   1.401       .  A
C1677      C1678   1.400       .  A
C1678      H1689   1.077       .  S
C1679      C1680   1.390       .  A
C1679      H1690   1.084       .  S
C1680      C1681   1.399       .  A
C1680      H1691   1.084       .  S
C1681      C1682   1.423       .  A
C1681      C1686   1.403       .  A
C1682      C1683   1.411       .  A
C1683      C1684   1.390       .  A
C1683      H1692   1.078       .  S
C1684      C1685   1.400       .  A
C1684      H1693   1.084       .  S
C1685      C1686   1.399       .  A
C1686      H1694   1.085       .  S
C1695      C1696   1.399       .  A
C1695      C1700   1.398       .  A
C1696      C1697   1.393       .  A
C1696      H1709   1.081       .  S
C1697      C1698   1.414       .  A
C1697      H1710   1.078       .  S
C1698      C1704   1.423       .  A
C1698      C1699   1.420       .  A
C1699      C1701   1.399       .  A
C1699      C1700   1.399       .  A
C1700      H1711   1.085       .  S
C1701      C1702   1.389       .  A
C1701      H1712   1.084       .  S
C1702      C1703   1.399       .  A
C1702      H1713   1.084       .  S
C1703      C1704   1.422       .  A
C1703      C1708   1.402       .  A
C1704      C1705   1.412       .  A
C1705      C1706   1.392       .  A
C1705      H1714   1.078       .  S
C1706      C1707   1.400       .  A
C1706      H1715   1.084       .  S
C1707      C1708   1.398       .  A
C1708      H1716   1.085       .  S
C1717      C1718   1.403       .  A
C1717      C1722   1.400       .  A
C1718      C1719   1.397       .  A
C1718      H1731   1.084       .  S
C1719      C1720   1.413       .  A
C1719      H1732   1.078       .  S
C1720      C1726   1.435       .  A
C1720      C1721   1.426       .  A
C1721      C1723   1.399       .  A
C1721      C1722   1.413       .  A
C1723      C1724   1.393       .  A
C1723      H1734   1.084   1_565  S
C1724      C1725   1.401       .  A
C1724      H1735   1.084       .  S
C1725      C1726   1.420       .  A
C1725      C1730   1.407       .  A
C1726      C1727   1.419       .  A
C1727      C1728   1.403       .  A
C1727      H1736   1.078       .  S
C1728      C1729   1.398       .  A
C1728      H1737   1.083       .  S
C1729      C1730   1.407       .  A
C1730      H1738   1.085       .  S
C1739      C1740   1.400       .  A
C1739      C1744   1.404       .  A
C1740      C1741   1.407       .  A
C1740      H1753   1.083       .  S
C1741      C1742   1.421       .  A
C1741      H1754   1.078       .  S
C1742      C1748   1.440       .  A
C1742      C1743   1.421       .  A
C1743      C1745   1.400       .  A
C1743      C1744   1.407       .  A
C1744      H1755   1.085       .  S
C1745      C1746   1.392       .  A
C1745      H1756   1.084       .  S
C1746      C1747   1.399       .  A
C1747      C1748   1.426       .  A
C1747      C1752   1.414       .  A
C1748      C1749   1.414       .  A
C1749      C1750   1.401       .  A
C1749      H1758   1.078       .  S
C1750      C1751   1.404       .  A
C1750      H1759   1.084       .  S
C1751      C1752   1.400       .  A
C1761      C1762   1.401       .  A
C1761      C1766   1.403       .  A
C1762      C1763   1.399       .  A
C1762      H1775   1.084       .  S
C1763      C1764   1.414       .  A
C1763      H1776   1.078       .  S
C1764      C1770   1.436       .  A
C1764      C1765   1.425       .  A
C1765      C1767   1.401       .  A
C1765      C1766   1.415       .  A
C1766      H1777   1.084       .  S
C1767      C1768   1.394       .  A
C1767      H1778   1.084       .  S
C1768      C1769   1.401       .  A
C1768      H1779   1.084       .  S
C1769      C1770   1.421       .  A
C1769      C1774   1.410       .  A
C1770      C1771   1.419       .  A
C1771      C1772   1.404       .  A
C1771      H1780   1.078       .  S
C1772      C1773   1.399       .  A
C1772      H1781   1.083       .  S
C1773      C1774   1.405       .  A
C1774      H1782   1.085   1_455  S
C1783      C1784   1.400       .  A
C1783      C1788   1.402       .  A
C1784      C1785   1.394       .  A
C1784      H1797   1.083       .  S
C1785      C1786   1.414       .  A
C1785      H1798   1.076       .  S
C1786      C1792   1.427       .  A
C1786      C1787   1.422       .  A
C1787      C1789   1.399       .  A
C1787      C1788   1.403       .  A
C1788      H1799   1.084       .  S
C1789      C1790   1.389       .  A
C1789      H3780   1.084       .  S
C1790      C1791   1.399       .  A
C1790      H1801   1.084       .  S
C1791      C1792   1.423       .  A
C1791      C1796   1.403       .  A
C1792      C1793   1.416       .  A
C1793      C1794   1.394       .  A
C1793      H1802   1.076       .  S
C1794      C1795   1.394       .  A
C1794      H1803   1.084       .  S
C1795      C1796   1.396       .  A
C1796      H1804   1.085       .  S
H1800      C3769   1.084       .  S
C1805      C1806   1.392       .  A
C1805      C1810   1.394       .  A
C1806      C1807   1.391       .  A
C1806      H1819   1.084       .  S
C1807      C1808   1.416       .  A
C1807      H1820   1.077       .  S
C1808      C1814   1.424       .  A
C1808      C1809   1.423       .  A
C1809      C1811   1.398       .  A
C1809      C1810   1.400       .  A
C1810      H1821   1.085       .  S
C1811      C1812   1.389       .  A
C1811      H1822   1.084       .  S
C1812      C1813   1.399       .  A
C1812      H1823   1.084       .  S
C1813      C1814   1.423       .  A
C1813      C1818   1.403       .  A
C1814      C1815   1.412       .  A
C1815      C1816   1.389       .  A
C1815      H1824   1.077       .  S
C1816      C1817   1.400       .  A
C1816      H1825   1.083       .  S
C1817      C1818   1.400       .  A
C1818      H1826   1.085       .  S
C1827      C1828   1.397       .  A
C1827      C1832   1.396       .  A
C1828      C1829   1.396       .  A
C1828      H1841   1.083       .  S
C1829      C1830   1.416       .  A
C1829      H1842   1.077       .  S
C1830      C1836   1.429       .  A
C1830      C1831   1.423       .  A
C1831      C1833   1.399       .  A
C1831      C1832   1.403       .  A
C1832      H1843   1.085       .  S
C1833      C1834   1.389       .  A
C1833      H1844   1.084       .  S
C1834      C1835   1.399       .  A
C1834      H1845   1.084       .  S
C1835      C1836   1.423       .  A
C1835      C1840   1.404       .  A
C1836      C1837   1.414       .  A
C1837      C1838   1.396       .  A
C1837      H1846   1.077       .  S
C1838      C1839   1.401       .  A
C1838      H1847   1.083       .  S
C1839      C1840   1.400       .  A
C1840      H1848   1.084       .  S
C1849      C1850   1.397       .  A
C1849      C1854   1.406       .  A
C1850      C1851   1.397       .  A
C1850      H1863   1.083       .  S
C1851      C1852   1.418       .  A
C1851      H1864   1.077       .  S
C1852      C1858   1.425       .  A
C1852      C1853   1.417       .  A
C1853      C1855   1.401       .  A
C1853      C1854   1.400       .  A
C1855      C1856   1.390       .  A
C1856      C1857   1.398       .  A
C1856      H1867   1.084       .  S
C1857      C1858   1.425       .  A
C1857      C1862   1.407       .  A
C1858      C1859   1.409       .  A
C1859      C1860   1.388       .  A
C1859      H1868   1.077       .  S
C1860      C1861   1.403       .  A
C1860      H1869   1.084       .  S
C1861      C1862   1.400       .  A
C1862      H1870   1.085       .  S
C1871      C1872   1.397       .  A
C1871      C1876   1.403       .  A
C1872      C1873   1.398       .  A
C1872      H1885   1.083       .  S
C1873      C1874   1.418       .  A
C1873      H1886   1.078       .  S
C1874      C1880   1.425       .  A
C1874      C1875   1.418       .  A
C1875      C1877   1.400       .  A
C1875      C1876   1.398       .  A
C1876      H1887   1.085       .  S
C1877      C1878   1.389       .  A
C1877      H1888   1.084       .  S
C1878      C1879   1.398       .  A
C1878      H1889   1.084       .  S
C1879      C1880   1.425       .  A
C1879      C1884   1.405       .  A
C1880      C1881   1.410       .  A
C1881      C1882   1.390       .  A
C1881      H1890   1.078       .  S
C1882      C1883   1.403       .  A
C1882      H3871   1.084   1_455  S
C1883      C1884   1.398       .  A
C1884      H1892   1.085       .  S
H1891      C3862   1.084       .  S
C1893      C1894   1.402       .  A
C1893      C1898   1.398       .  A
C1894      C1895   1.387       .  A
C1894      H1907   1.084       .  S
C1895      C1896   1.409       .  A
C1895      H1908   1.077       .  S
C1896      C1902   1.424       .  A
C1896      C1897   1.425       .  A
C1897      C1899   1.398       .  A
C1897      C1898   1.404       .  A
C1898      H1909   1.085       .  S
C1899      C1900   1.388       .  A
C1899      H1910   1.084       .  S
C1900      C1901   1.400       .  A
C1900      H1911   1.084       .  S
C1901      C1902   1.418       .  A
C1901      C1906   1.397       .  A
C1902      C1903   1.418       .  A
C1903      C1904   1.395       .  A
C1903      H1912   1.077       .  S
C1904      C1905   1.396       .  A
C1904      H1913   1.083       .  S
C1905      C1906   1.404       .  A
C1906      H1914   1.085       .  S
C1915      C1916   1.395       .  A
C1915      C1920   1.398       .  A
C1916      C1917   1.391       .  A
C1916      H1929   1.084       .  S
C1917      C1918   1.414       .  A
C1917      H1930   1.076       .  S
C1918      C1924   1.427       .  A
C1918      C1919   1.424       .  A
C1919      C1921   1.399       .  A
C1919      C1920   1.404       .  A
C1920      H1931   1.085       .  S
C1921      C1922   1.390       .  A
C1921      H1932   1.084       .  S
C1922      C1923   1.400       .  A
C1922      H1933   1.084       .  S
C1923      C1924   1.422       .  A
C1925      C1926   1.393   1_545  A
C1925      H1934   1.076       .  S
C1926      C1927   1.399       .  A
C1926      H1935   1.084       .  S
C1927      C1928   1.402       .  A
C1928      H1936   1.084       .  S
C1937      C1938   1.399       .  A
C1937      C1942   1.397       .  A
C1938      C1939   1.398       .  A
C1938      H1951   1.083       .  S
C1939      C1940   1.417       .  A
C1939      H1952   1.077       .  S
C1940      C1946   1.431       .  A
C1940      C1941   1.423       .  A
C1941      C3923   1.399       .  A
C1941      C1942   1.403       .  A
C1942      H1953   1.085       .  S
C1943      C3921   1.399       .  A
C1943      C1944   1.389       .  A
C1943      H1954   1.084       .  S
C1944      C1945   1.399       .  A
C1944      H1955   1.084       .  S
C1945      C3926   1.423       .  A
C1945      C1950   1.403   1_655  A
C1946      C3925   1.423       .  A
C1946      C1947   1.415       .  A
C1947      C3928   1.398       .  A
C1947      H1956   1.078       .  S
C1948      C3927   1.396       .  A
C1948      C1949   1.400       .  A
C1948      H1957   1.083       .  S
C1949      C1950   1.400       .  A
C1950      H1958   1.085       .  S
C1959      C1960   1.394       .  A
C1959      C1964   1.397       .  A
C1960      C1961   1.391       .  A
C1960      H1973   1.084       .  S
C1961      C1962   1.415       .  A
C1961      H1974   1.077       .  S
C1962      C1968   1.425       .  A
C1962      C1963   1.423       .  A
C1963      C1965   1.399       .  A
C1963      C1964   1.403       .  A
C1964      H1975   1.085       .  S
C1965      C1966   1.390       .  A
C1965      H1976   1.084       .  S
C1966      C1967   1.400       .  A
C1966      H1977   1.084       .  S
C1967      C1968   1.422       .  A
C1967      C1972   1.404       .  A
C1968      C1969   1.414       .  A
C1969      C1970   1.392       .  A
C1969      H1978   1.077       .  S
C1970      C1971   1.400       .  A
C1970      H1979   1.083       .  S
C1971      C1972   1.402       .  A
C1972      H1980   1.084       .  S
Zn1981     O1985   1.967       .  S
Zn1981     O1986   2.025       .  S
Zn1981     O1990   2.042       .  S
Zn1981     O1997   2.017       .  S
Zn1982     O1985   1.955       .  S
Zn1982     O1987   2.054       .  S
Zn1982     O1989   2.009       .  S
Zn1982     O1993   2.017       .  S
Zn1983     O1985   1.900       .  S
Zn1983     O1988   1.939       .  S
Zn1983     O1991   1.952       .  S
Zn1983     O1994   1.955       .  S
Zn1984     O1985   1.954       .  S
Zn1984     O1992   2.055       .  S
Zn1984     O1995   2.005       .  S
Zn1984     O1996   2.018       .  S
O1986      C1998   1.275       .  A
O1987      C1999   1.276       .  A
O1988      C2000   1.265       .  A
O1989      C1998   1.275       .  A
O1990      C2000   1.274       .  A
O1991      C1999   1.265       .  A
O1992      C2001   1.276       .  A
O1993      C2002   1.275       .  A
O1994      C2001   1.266       .  A
O1995      C2002   1.274       .  A
O1996      C2003   1.275       .  A
O1997      C2003   1.275       .  A
C1998      C2961   1.480       .  S
C1999      C2895   1.472       .  S
C2000      C2861   1.466       .  S
C2001      C2851   1.474       .  S
C2002      C2917   1.475       .  S
C2003      C2939   1.475       .  S
Zn2004     O2008   1.894       .  S
Zn2004     O2013   1.937       .  S
Zn2005     O2012   2.054       .  S
Zn2005     O3006   2.010       .  S
Zn2006     O2008   1.951       .  S
Zn2006     O2011   2.051       .  S
Zn2006     O2014   2.021       .  S
Zn2006     O3007   1.989       .  S
Zn2007     O2018   2.017       .  S
Zn2007     O2019   2.048       .  S
O2009      C2021   1.266       .  A
O2010      C2022   1.275       .  A
O2011      C2023   1.274       .  A
O2012      C2021   1.276       .  A
O2013      C2023   1.264       .  A
O2014      C2022   1.276       .  A
O2015      C2024   1.276       .  A
O2016     Zn2995   2.015   1_545  S
O2016      C2025   1.276       .  A
O2017     Zn2996   2.012   1_545  S
O2017      C2024   1.274       .  A
O2018      C2025   1.276       .  A
O2019      C2026   1.275       .  A
O2020      C2026   1.263       .  A
C2021      C2839   1.474       .  S
C2022      C2773   1.480       .  S
C2023      C2883   1.468       .  S
C2024      C2807   1.481       .  S
C2025      C2829   1.477       .  S
C2026      C2873   1.465       .  S
C2027      H2028   1.110       .  S
C2027      C2033   1.555       .  S
C2027      C2032   1.556       .  S
C2027      C2031   1.559       .  S
C2029      H2030   1.110       .  S
C2029      C2035   1.524       .  S
C2029      C2034   1.528       .  S
C2029      C2036   1.523       .  S
C2031      C2034   1.381       .  D
C2031      C2719   1.487       .  S
C2032      C2035   1.372       .  D
C2032      C2729   1.495       .  S
C2033      C2036   1.373       .  D
C2033      C2751   1.499       .  S
C2034      C2663   1.502       .  S
C2035      C2653   1.478       .  S
C2036      C2685   1.475       .  S
C2037      H2038   1.110       .  S
C2037      C2043   1.527   1_455  S
C2039      H2040   1.110       .  S
C2039      C2046   1.557   1_455  S
C2041      C2044   1.375       .  D
C2041      C2619   1.479       .  S
C2042      C2045   1.371       .  D
C2042      C2597   1.484       .  S
C2043      C2046   1.382       .  D
C2043      C2575   1.492       .  S
C2044      C2763   1.499       .  S
C2045      C2707   1.487       .  S
C2046      C2741   1.494       .  S
C2047      H2048   1.110       .  S
C2047      C2053   1.556       .  S
C2047      C2052   1.556       .  S
C2047      C2051   1.557       .  S
C2049      H2050   1.110       .  S
C2049      C2055   1.524       .  S
C2049      C2054   1.526       .  S
C2049      C2056   1.523       .  S
C2051      C2054   1.379       .  D
C2051      C2565   1.494       .  S
C2052      C2055   1.377       .  D
C2052      C2509   1.491       .  S
C2053      C2056   1.376       .  D
C2053      C2531   1.496       .  S
C2054      C2499   1.487       .  S
C2055      C2455   1.488       .  S
C2056      C2465   1.484       .  S
C2057      H2058   1.112       .  S
C2057      C2063   1.523       .  S
C2057      C2062   1.520       .  S
C2057      C2061   1.520       .  S
C2059      H2060   1.110       .  S
C2059      C2065   1.557       .  S
C2059      C2064   1.559       .  S
C2059      C2066   1.559       .  S
C2061      C2064   1.371       .  D
C2061      C2949   1.473       .  S
C2062      C2065   1.372       .  D
C2062      C2905   1.474       .  S
C2063      C2066   1.375       .  D
C2063      C2927   1.479       .  S
C2064      C2553   1.495       .  S
C2065      C2521   1.493       .  S
C2066      C2543   1.495       .  S
Zn2067     O2071   1.952       .  S
Zn2067     O2072   2.001       .  S
Zn2067     O2076   2.003       .  S
Zn2067     O2083   2.021       .  S
Zn2068     O2071   1.956       .  S
Zn2068     O2073   2.008       .  S
Zn2068     O2075   1.993       .  S
Zn2068     O2079   2.010       .  S
Zn2069     O2071   1.957       .  S
Zn2069     O2074   2.020       .  S
Zn2069     O2077   2.006       .  S
Zn2069     O2080   2.016       .  S
Zn2070     O2071   1.935       .  S
Zn2070     O2078   1.992       .  S
Zn2070     O2081   1.991       .  S
Zn2070     O2082   1.997       .  S
O2072      C2084   1.272       .  A
O2073      C2085   1.272       .  A
O2074      C2086   1.274       .  A
O2075      C2084   1.271       .  A
O2076      C2086   1.273       .  A
O2077      C2085   1.273       .  A
O2078      C2087   1.272       .  A
O2079      C2088   1.273       .  A
O2080      C2087   1.273       .  A
O2081      C2088   1.271       .  A
O2082      C2089   1.271       .  A
O2083      C2089   1.274       .  A
C2084      C2421   1.474       .  S
C2085      C2411   1.478       .  S
C2086      C2389   1.480       .  S
C2087      C2477   1.470       .  S
C2088      C2487   1.472       .  S
C2089      C2443   1.473       .  S
Zn2090     O3084   1.962       .  S
Zn2090     O2099   2.035       .  S
Zn2090     O3096   2.005       .  S
Zn2091     O2096   2.015       .  S
Zn2091     O2098   1.994       .  S
Zn2091     O3092   1.989       .  S
Zn2092     O2094   1.934       .  S
Zn2092     O3087   1.980   1_545  S
Zn2092     O2103   1.983       .  S
Zn2093     O2094   1.959       .  S
Zn2093     O2101   2.018       .  S
Zn2093     O2105   1.992       .  S
O2094     Zn3080   1.956   1_545  S
O2095      C2107   1.274       .  A
O2096      C2108   1.272       .  A
O2097     Zn3082   1.995       .  S
O2097      C2109   1.270       .  A
O2098      C2107   1.271       .  A
O2099      C2109   1.276       .  A
O2100      C2108   1.269       .  A
O2101      C2110   1.274       .  A
O2102     Zn3081   1.991   1_545  S
O2102      C2111   1.272       .  A
O2103      C2110   1.270       .  A
O2104      C2111   1.275   1_455  A
O2105      C2112   1.271       .  A
O2106     Zn3080   1.998   1_545  S
O2106      C2112   1.271       .  A
C2107      C2399   1.475       .  S
C2108      C2641   1.468       .  S
C2109      C2675   1.477       .  S
C2110      C2697   1.466       .  S
C2111      C2377   1.481       .  S
C2112      C2433   1.473       .  S
C2113      H2114   1.110       .  S
C2113      C2119   1.553       .  S
C2113      C2118   1.558       .  S
C2113      C2117   1.553       .  S
C2115      H2116   1.112       .  S
C2115      C2121   1.523       .  S
C2115      C2120   1.522       .  S
C2115      C2122   1.526       .  S
C2117      C2120   1.372       .  D
C2117      C2355   1.489       .  S
C2118      C2121   1.375       .  D
C2118      C2311   1.494       .  S
C2119      C2122   1.373       .  D
C2119      C2345   1.492       .  S
C2120      C2817   1.476       .  S
C2121      C2795   1.478       .  S
C2122      C2785   1.477       .  S
C2123      H2124   1.113       .  S
C2123      C3118   1.517   1_445  S
C2123      C2127   1.518   1_455  S
C2125      H2126   1.110       .  S
C2125      C2132   1.555       .  S
C2127      C2130   1.373       .  D
C2127      C2279   1.467       .  S
C2128      C3113   1.520   1_655  S
C2128      C2131   1.371       .  D
C2128      C2245   1.471       .  S
C2129      C2132   1.373       .  D
C2129      C2289   1.479       .  S
C2130      C2323   1.497       .  S
C2131      C2333   1.494       .  S
C2132      C2367   1.488       .  S
Zn2133     O2137   1.948       .  S
Zn2133     O2138   2.000       .  S
Zn2133     O2142   2.003       .  S
Zn2133     O2149   2.028       .  S
Zn2134     O2137   1.955       .  S
Zn2134     O2139   1.999       .  S
Zn2134     O2141   1.997       .  S
Zn2134     O2145   2.015       .  S
Zn2135     O2137   1.958       .  S
Zn2135     O2140   2.009       .  S
Zn2135     O2143   2.007       .  S
Zn2135     O2146   2.007       .  S
Zn2136     O2137   1.935       .  S
Zn2136     O2144   1.999       .  S
Zn2136     O2147   1.989       .  S
Zn2136     O2148   2.006       .  S
O2138      C2150   1.273       .  A
O2139      C2151   1.271       .  A
O2140      C2152   1.271       .  A
O2141      C2150   1.272       .  A
O2142      C2152   1.272       .  A
O2143      C2151   1.272       .  A
O2144      C2153   1.273       .  A
O2145      C2154   1.273       .  A
O2146      C2153   1.273       .  A
O2147      C2154   1.270       .  A
O2148      C2155   1.272       .  A
O2149      C2155   1.274       .  A
C2150      C2201   1.471       .  S
C2151      C2179   1.475       .  S
C2152      C2223   1.473       .  S
C2153      C2631   1.465       .  S
C2154      C2587   1.472       .  S
C2155      C2609   1.471       .  S
Zn2156     O2160   1.917       .  S
Zn2156     O2161   1.968       .  S
Zn2156     O2165   1.971       .  S
Zn2156     O2172   1.972       .  S
Zn2157     O2160   1.963       .  S
Zn2157     O2162   2.014       .  S
Zn2157     O2164   2.043       .  S
Zn2157     O2168   1.996       .  S
Zn2158     O2160   1.959       .  S
Zn2158     O2163   2.037       .  S
Zn2158     O2166   1.989       .  S
Zn2158     O2169   2.027       .  S
Zn2159     O2160   1.954       .  S
Zn2159     O2167   2.010       .  S
Zn2159     O2170   2.010       .  S
Zn2159     O2171   2.035       .  S
O2161      C2173   1.267       .  A
O2162      C2174   1.274       .  A
O2163      C2175   1.274       .  A
O2164      C2173   1.274       .  A
O2165      C2175   1.268       .  A
O2166      C2174   1.272       .  A
O2167      C2176   1.274       .  A
O2168      C2177   1.272       .  A
O2169      C2176   1.275       .  A
O2170      C2177   1.274       .  A
O2171      C2178   1.275       .  A
O2172      C2178   1.268       .  A
C2173      C2235   1.466       .  S
C2174      C2257   1.470       .  S
C2175      C2191   1.463       .  S
C2176      C2301   1.480       .  S
C2177      C2267   1.473       .  S
C2178      C2213   1.466       .  S
C2179      C2180   1.401       .  A
C2179      C2184   1.400       .  A
C2180      C2181   1.394       .  A
C2180      H2193   1.083       .  S
C2181      C2182   1.412       .  A
C2181      H2194   1.078       .  S
C2182      C2188   1.426       .  A
C2182      C2183   1.423       .  A
C2183      C2185   1.399       .  A
C2183      C2184   1.403       .  A
C2184      H2195   1.085       .  S
C2185      C2186   1.388       .  A
C2185      H2196   1.084       .  S
C2186      C2187   1.399       .  A
C2186      H2197   1.084       .  S
C2187      C2188   1.421       .  A
C2187      C2192   1.399   1_556  A
C2188      C2189   1.417   1_556  A
C2189      C2190   1.398       .  A
C2189      H2198   1.078       .  S
C2190      C2191   1.396       .  A
C2190      H2199   1.083       .  S
C2191      C2192   1.397       .  A
C2192      H2200   1.085       .  S
C2201      C2202   1.400       .  A
C2201      C2206   1.402       .  A
C2202      C2203   1.390       .  A
C2202      H2215   1.083       .  S
C2203      C2204   1.411       .  A
C2203      H2216   1.078       .  S
C2204      C3200   1.421       .  A
C2204      C2205   1.422       .  A
C2205      C2207   1.400       .  A
C2205      C2206   1.403       .  A
C2206      H2217   1.085       .  S
C2207      C3198   1.390       .  A
C2207      H2218   1.084       .  S
C2208      C3197   1.390       .  A
C2208      C2209   1.400       .  A
C2208      H2219   1.084       .  S
C2209      C2210   1.420       .  A
C2209      C2214   1.400   1_556  A
C2210      C3194   1.424   1_545  A
C2210      C2211   1.416   1_556  A
C2211      C2212   1.396       .  A
C2211      H2220   1.078   1_545  S
C2212      C2213   1.396       .  A
C2212      H2221   1.083       .  S
C2213      C2214   1.400       .  A
C2214      H2222   1.085       .  S
C2223      C2224   1.397       .  A
C2223      C2228   1.403       .  A
C2224      C2225   1.392       .  A
C2224      H2237   1.084       .  S
C2225      C2226   1.415       .  A
C2225      H2238   1.076       .  S
C2226      C2227   1.422       .  A
C2227      C2229   1.401       .  A
C2227      C2228   1.406       .  A
C2228      H2239   1.085       .  S
C2229      H2240   1.084       .  S
C2230      C2231   1.400   1_455  A
C2230      H2241   1.084       .  S
C2231      C2232   1.424   1_554  A
C2231      C2236   1.407       .  A
C2232      C2233   1.413       .  A
C2233      C2234   1.390   1_556  A
C2233      H2242   1.075       .  S
C2234      C2235   1.396       .  A
C2234      H2243   1.084       .  S
C2235      C2236   1.399       .  A
C2236      H2244   1.085       .  S
C2245      C2246   1.394       .  A
C2245      C2250   1.398       .  A
C2246      C2247   1.390       .  A
C2246      H2259   1.084       .  S
C2247      C2248   1.414       .  A
C2247      H2260   1.077       .  S
C2248      C2254   1.423       .  A
C2248      C2249   1.422       .  A
C2249      C2251   1.399       .  A
C2249      C2250   1.402       .  A
C2251      C2252   1.390       .  A
C2252      C2253   1.400       .  A
C2252      H2263   1.084       .  S
C2253      C2254   1.422       .  A
C2253      C2258   1.402       .  A
C2254      C2255   1.413       .  A
C2255      C2256   1.390       .  A
C2255      H2264   1.077       .  S
C2256      C2257   1.399       .  A
C2256      H2265   1.083       .  S
C2257      C2258   1.400       .  A
C2258      H2266   1.085       .  S
C2267      C2268   1.399       .  A
C2267      C2272   1.401       .  A
C2268      C2269   1.393       .  A
C2268      H2281   1.083       .  S
C2269      C2270   1.414       .  A
C2269      H2282   1.077       .  S
C2270      C2276   1.424       .  A
C2270      C2271   1.422       .  A
C2271      C2273   1.399       .  A
C2271      C2272   1.400       .  A
C2272      H2283   1.085       .  S
C2273      C2274   1.388       .  A
C2273      H2284   1.084       .  S
C2274      C2275   1.398       .  A
C2274      H2285   1.084   1_655  S
C2275      C2276   1.423       .  A
C2275      C2280   1.400       .  A
C2276      C2277   1.415       .  A
C2277      C2278   1.392       .  A
C2277      H2286   1.077       .  S
C2278      C2279   1.395       .  A
C2278      H2287   1.084   1_545  S
C2279      C2280   1.393       .  A
C2280      H2288   1.085   1_655  S
C2289      C2290   1.395       .  A
C2289      C2294   1.399       .  A
C2290      C2291   1.394       .  A
C2290      H2303   1.084   1_545  S
C2291      C2292   1.416       .  A
C2291      H2304   1.077       .  S
C2292      C2298   1.428       .  A
C2292      C2293   1.423       .  A
C2293      C2295   1.400       .  A
C2293      C2294   1.404       .  A
C2294      H2305   1.085       .  S
C2295      C2296   1.391       .  A
C2295      H2306   1.084       .  S
C2296      C2297   1.400       .  A
C2296      H2307   1.084       .  S
C2297      C2298   1.422       .  A
C2297      C2302   1.407       .  A
C2298      C2299   1.413       .  A
C2299      C2300   1.394       .  A
C2299      H2308   1.077       .  S
C2300      C2301   1.400       .  A
C2300      H2309   1.083       .  S
C2301      C2302   1.403       .  A
C2302      H2310   1.084       .  S
C2311      C2312   1.403       .  A
C2311      C2316   1.400       .  A
C2312      C2313   1.400       .  A
C2312      H2325   1.084       .  S
C2313      C2314   1.414       .  A
C2313      H2326   1.078       .  S
C2314      C2320   1.438       .  A
C2314      C2315   1.426       .  A
C2315      C2317   1.399       .  A
C2315      C2316   1.413       .  A
C2316      H2327   1.085       .  S
C2317      C2318   1.392       .  A
C2317      H2328   1.084       .  S
C2318      C2319   1.401       .  A
C2319      C2320   1.421       .  A
C2319      C2324   1.407       .  A
C2320      C2321   1.421       .  A
C2321      C2322   1.407       .  A
C2321      H2330   1.078       .  S
C2322      C2323   1.399       .  A
C2322      H3321   1.083   1_545  S
C2323      C2324   1.406       .  A
H2331      C3312   1.083       .  S
C2333      C2334   1.403       .  A
C2333      C2338   1.400       .  A
C2334      C2335   1.401       .  A
C2334      H2347   1.084       .  S
C2335      C2336   1.415       .  A
C2335      H2348   1.078       .  S
C2336      C2342   1.439       .  A
C2336      C2337   1.426       .  A
C2337      C2339   1.399       .  A
C2337      C2338   1.414       .  A
C2339      C2340   1.392       .  A
C2340      C2341   1.400       .  A
C2340      H2351   1.084       .  S
C2341      C2342   1.422       .  A
C2341      C2346   1.409       .  A
C2342      C2343   1.420       .  A
C2343      C2344   1.406       .  A
C2343      H2352   1.078       .  S
C2344      C2345   1.399       .  A
C2344      H2353   1.083       .  S
C2345      C2346   1.403       .  A
C2346      H2354   1.085       .  S
C2355      C2356   1.402       .  A
C2355      C2360   1.399       .  A
C2356      C2357   1.398       .  A
C2356      H2369   1.084       .  S
C2357      C2358   1.413       .  A
C2357      H2370   1.078       .  S
C2358      C2364   1.435       .  A
C2358      C2359   1.425       .  A
C2359      C2361   1.399       .  A
C2359      C2360   1.412       .  A
C2360      H2371   1.084       .  S
C2361      C2362   1.392       .  A
C2361      H2372   1.084       .  S
C2362      C2363   1.401       .  A
C2362      H2373   1.084       .  S
C2363      C2364   1.421       .  A
C2363      C2368   1.406       .  A
C2364      C2365   1.419       .  A
C2365      C2366   1.402       .  A
C2365      H2374   1.078       .  S
C2366      C2367   1.397       .  A
C2366      H2375   1.083       .  S
C2367      C2368   1.404       .  A
C2368      H2376   1.085   1_545  S
C2377      C2378   1.401       .  A
C2377      C2382   1.404       .  A
C2378      C2379   1.391       .  A
C2378      H2391   1.083       .  S
C2379      C2380   1.412       .  A
C2379      H2392   1.078       .  S
C2380      C2386   1.427       .  A
C2380      C2381   1.422       .  A
C2381      C2383   1.401       .  A
C2381      C2382   1.409       .  A
C2382      H2393   1.084   1_655  S
C2383      C2384   1.393       .  A
C2383      H2394   1.084   1_655  S
C2384      C2385   1.400       .  A
C2384      H2395   1.084       .  S
C2385      C2386   1.421       .  A
C2385      C2390   1.406       .  A
C2386      C2387   1.414       .  A
C2387      C2388   1.393       .  A
C2387      H2396   1.078       .  S
C2388      C2389   1.401       .  A
C2388      H2397   1.083       .  S
C2389      C2390   1.403       .  A
C2390      H2398   1.084       .  S
C2399      C2400   1.401       .  A
C2399      C2404   1.400       .  A
C2400      C2401   1.394       .  A
C2400      H2413   1.083       .  S
C2401      C2402   1.414       .  A
C2401      H2414   1.077       .  S
C2402      C2408   1.427       .  A
C2402      C2403   1.422       .  A
C2403      C2405   1.398       .  A
C2403      C2404   1.401       .  A
C2404      H2415   1.084       .  S
C2405      C2406   1.388       .  A
C2405      H2416   1.084   1_655  S
C2406      C2407   1.398       .  A
C2406      H2417   1.084       .  S
C2407      C2408   1.422       .  A
C2407      C2412   1.401       .  A
C2408      C2409   1.414       .  A
C2409      C2410   1.395       .  A
C2409      H2418   1.077       .  S
C2410      C2411   1.401       .  A
C2410      H2419   1.083       .  S
C2411      C2412   1.401       .  A
C2412      H2420   1.085       .  S
C2421      C2422   1.400       .  A
C2421      C2426   1.402       .  A
C2422      C2423   1.392       .  A
C2422      H2435   1.083       .  S
C2423      C2424   1.413       .  A
C2423      H2436   1.077       .  S
C2424      C2430   1.424       .  A
C2424      C2425   1.422       .  A
C2425      C2427   1.399       .  A
C2425      C2426   1.401       .  A
C2426      H2437   1.084       .  S
C2427      C2428   1.387       .  A
C2427      H2438   1.084       .  S
C2428      C2429   1.399       .  A
C2428      H2439   1.084       .  S
C2429      C2430   1.421       .  A
C2429      C2434   1.399       .  A
C2430      C2431   1.414       .  A
C2431      C2432   1.393       .  A
C2431      H2440   1.077       .  S
C2432      C2433   1.400       .  A
C2432      H2441   1.083       .  S
C2433      C2434   1.401       .  A
C2434      H2442   1.085       .  S
C2443      C2444   1.398       .  A
C2443      C2448   1.401       .  A
C2444      C2445   1.395   1_545  A
C2444      H2457   1.083       .  S
C2445      C3436   1.416       .  A
C2445      H3448   1.077       .  S
C2446      C3435   1.416       .  A
C2446      C2452   1.427       .  A
C2446      C3437   1.421       .  A
C2447      C3436   1.421   1_545  A
C2447      C2449   1.400       .  A
C2447      C2448   1.403       .  A
C2448      H2459   1.085       .  S
C2449      C3440   1.390   1_545  A
C2449      H2460   1.084       .  S
C2450      C3439   1.389       .  A
C2450      C2451   1.399       .  A
C2450      H2461   1.084       .  S
C2451      C2452   1.422       .  A
C2451      C2456   1.403       .  A
C2452      C2453   1.413       .  A
C2453      C2454   1.394       .  A
C2453      H2462   1.078       .  S
C2454      C2455   1.400       .  A
C2454      H2463   1.083       .  S
C2455      C2456   1.401       .  A
C2456      H2464   1.083       .  S
H2458      C3435   1.078       .  S
C2465      C2466   1.398       .  A
C2465      C2470   1.400       .  A
C2466      C2467   1.393       .  A
C2466      H2479   1.082       .  S
C2467      C2468   1.414       .  A
C2467      H2480   1.078       .  S
C2468      C2474   1.427       .  A
C2468      C2469   1.422       .  A
C2469      C2471   1.400       .  A
C2469      C2470   1.404       .  A
C2470      H2481   1.085       .  S
C2471      H2482   1.084       .  S
C2472      C2473   1.400       .  A
C2472      H2483   1.084       .  S
C2473      C2478   1.404   1_455  A
C2474      C2475   1.414       .  A
C2475      H2484   1.078       .  S
C2476      C2477   1.399       .  A
C2476      H2485   1.084       .  S
C2477      C2478   1.400       .  A
C2478      H2486   1.085       .  S
C2487      C2488   1.399       .  A
C2487      C2492   1.401       .  A
C2488      C2489   1.395       .  A
C2488      H2501   1.083       .  S
C2489      C2490   1.415       .  A
C2489      H2502   1.078       .  S
C2490      C2496   1.424       .  A
C2490      C2491   1.420       .  A
C2491      C2493   1.400       .  A
C2491      C2492   1.400       .  A
C2492      H2503   1.085       .  S
C2493      C2494   1.389       .  A
C2493      H2504   1.084       .  S
C2494      C2495   1.399       .  A
C2494      H2505   1.084       .  S
C2495      C2496   1.421       .  A
C2495      C2500   1.401       .  A
C2496      C2497   1.412       .  A
C2497      C2498   1.393       .  A
C2497      H2506   1.078       .  S
C2498      C2499   1.401       .  A
C2498      H2507   1.083       .  S
C2499      C2500   1.401       .  A
C2500      H2508   1.081       .  S
C2509      C2510   1.402       .  A
C2509      C2514   1.401       .  A
C2510      C2511   1.399       .  A
C2510      H2523   1.084       .  S
C2511      C2512   1.414       .  A
C2511      H2524   1.077       .  S
C2512      C3508   1.436       .  A
C2512      C2513   1.425       .  A
C2513      C2515   1.400       .  A
C2513      C2514   1.413       .  A
C2514      H2525   1.085       .  S
C2515      C3506   1.393       .  A
C2515      H2526   1.084       .  S
C2516      C3505   1.393   1_545  A
C2516      C2517   1.401       .  A
C2516      H2527   1.084       .  S
C2517      C2518   1.421       .  A
C2517      C2522   1.408       .  A
C2518      C3502   1.438   1_545  A
C2518      C2519   1.420       .  A
C2519      C2520   1.405       .  A
C2519      H2528   1.077       .  S
C2520      C2521   1.398       .  A
C2520      H2529   1.083       .  S
C2521      C2522   1.404       .  A
C2522      H2530   1.085       .  S
C2531      C2532   1.402       .  A
C2531      C2536   1.402       .  A
C2532      C2533   1.400       .  A
C2532      H2545   1.084       .  S
C2533      C2534   1.414       .  A
C2533      H2546   1.078       .  S
C2534      C2535   1.426       .  A
C2535      C2537   1.400       .  A
C2535      C2536   1.416       .  A
C2536      H2547   1.085       .  S
C2537      C2538   1.394       .  A
C2537      H2548   1.084       .  S
C2538      H2549   1.084       .  S
C2539      C2540   1.421       .  A
C2539      C2544   1.410       .  A
C2540      C2541   1.419       .  A
C2541      C2542   1.404       .  A
C2541      H2550   1.078       .  S
C2542      C2543   1.398       .  A
C2542      H2551   1.083       .  S
C2543      C2544   1.406       .  A
C2544      H2552   1.085       .  S
C2553      C2554   1.399       .  A
C2553      C2558   1.405       .  A
C2554      C2555   1.406       .  A
C2554      H2567   1.083       .  S
C2555      C2556   1.420       .  A
C2555      H2568   1.078       .  S
C2556      C2562   1.438       .  A
C2556      C2557   1.421       .  A
C2557      C2559   1.401       .  A
C2557      C2558   1.408       .  A
C2558      H2569   1.085       .  S
C2559      C2560   1.392       .  A
C2559      H2570   1.084       .  S
C2560      C2561   1.400       .  A
C2560      H2571   1.084       .  S
C2561      C2562   1.426       .  A
C2561      C2566   1.414       .  A
C2562      C2563   1.415       .  A
C2563      C2564   1.401       .  A
C2563      H2572   1.078       .  S
C2564      C2565   1.402       .  A
C2564      H2573   1.083       .  S
C2565      C2566   1.402       .  A
C2566      H2574   1.085       .  S
C2575      C2576   1.401       .  A
C2575      C2580   1.402       .  A
C2576      C2577   1.393       .  A
C2576      H2589   1.081       .  S
C2577      C2578   1.412       .  A
C2577      H2590   1.078       .  S
C2578      C2584   1.422       .  A
C2578      C2579   1.418       .  A
C2579      C2581   1.400       .  A
C2579      C2580   1.399       .  A
C2580      H2591   1.079       .  S
C2581      C2582   1.390       .  A
C2581      H2592   1.084       .  S
C2582      C2583   1.399       .  A
C2582      H2593   1.084       .  S
C2583      C2584   1.422       .  A
C2583      C2588   1.403       .  A
C2584      C2585   1.411       .  A
C2585      C2586   1.391       .  A
C2585      H2594   1.078       .  S
C2586      C2587   1.401       .  A
C2586      H2595   1.083       .  S
C2587      C2588   1.400       .  A
C2588      H2596   1.085       .  S
C2597      C2598   1.398       .  A
C2597      C2602   1.397       .  A
C2598      C2599   1.398       .  A
C2598      H3601   1.083       .  S
C2599      C2600   1.417       .  A
C2599      H2612   1.077       .  S
C2600      C2606   1.430       .  A
C2600      C2601   1.421       .  A
C2601      C2603   1.400       .  A
C2601      C2602   1.402       .  A
C2603      C2604   1.390       .  A
C2604      C2605   1.399       .  A
C2604      H2615   1.084       .  S
C2605      C2606   1.424       .  A
C2605      C2610   1.406       .  A
C2606      C2607   1.414       .  A
C2607      C2608   1.396       .  A
C2607      H2616   1.077       .  S
C2608      C2609   1.398       .  A
C2608      H2617   1.084       .  S
C2609      C2610   1.398       .  A
C2610      H2618   1.085       .  S
H2611      C3588   1.083       .  S
C2619      C2620   1.398       .  A
C2619      C2624   1.398       .  A
C2620      C2621   1.392       .  A
C2621      C2622   1.413       .  A
C2621      H2634   1.078       .  S
C2622      C2628   1.424       .  A
C2622      C2623   1.422       .  A
C2623      C2625   1.398       .  A
C2623      C2624   1.400       .  A
C2624      H2635   1.083       .  S
C2625      C2626   1.388       .  A
C2625      H2636   1.084       .  S
C2626      C2627   1.399       .  A
C2626      H2637   1.084       .  S
C2627      C2628   1.421       .  A
C2627      C2632   1.400       .  A
C2628      C2629   1.415       .  A
C2629      C2630   1.394       .  A
C2629      H2638   1.078       .  S
C2630      C2631   1.397       .  A
C2630      H2639   1.084       .  S
C2631      C2632   1.398       .  A
C2632      H2640   1.085       .  S
C2641      C2642   1.396       .  A
C2641      C2646   1.401       .  A
C2642      C2643   1.393       .  A
C2642      H2655   1.084       .  S
C2643      C2644   1.415       .  A
C2643      H2656   1.078       .  S
C2644      C2650   1.423       .  A
C2644      C2645   1.421       .  A
C2645      C2647   1.401       .  A
C2645      C2646   1.404       .  A
C2646      H2657   1.085       .  S
C2647      C2648   1.392       .  A
C2647      H2658   1.084       .  S
C2648      C2649   1.400       .  A
C2648      H2659   1.084       .  S
C2649      C2650   1.422       .  A
C2649      C2654   1.405       .  A
C2650      C2651   1.412       .  A
C2651      C2652   1.390       .  A
C2651      H2660   1.078       .  S
C2652      C2653   1.394       .  A
C2652      H2661   1.078       .  S
C2653      C2654   1.400       .  A
C2654      H2662   1.084       .  S
C2663      C2664   1.404       .  A
C2663      C2668   1.402       .  A
C2664      C2665   1.400       .  A
C2664      H2677   1.080       .  S
C2665      C2666   1.415       .  A
C2665      H2678   1.078       .  S
C2666      C2672   1.430       .  A
C2666      C2667   1.419       .  A
C2667      C2669   1.399       .  A
C2667      C2668   1.401       .  A
C2668      H2679   1.076       .  S
C2669      C2670   1.388       .  A
C2669      H2680   1.084       .  S
C2670      C2671   1.398       .  A
C2670      H2681   1.084       .  S
C2671      C2672   1.424       .  A
C2671      C2676   1.404       .  A
C2672      C2673   1.414       .  A
C2673      C2674   1.397       .  A
C2673      H2682   1.078       .  S
C2674      C2675   1.403       .  A
C2674      H2683   1.084       .  S
C2675      C2676   1.398       .  A
C2676      H2684   1.085       .  S
C2685      C2686   1.397       .  A
C2685      C2690   1.397       .  A
C2686      C2687   1.391       .  A
C2686      H2699   1.082       .  S
C2687      C2688   1.414       .  A
C2687      H2700   1.077       .  S
C2688      C2694   1.422       .  A
C2688      C2689   1.421       .  A
C2689      C2691   1.399       .  A
C2689      C2690   1.398       .  A
C2690      H2701   1.085       .  S
C2691      C2692   1.389       .  A
C2691      H2702   1.084       .  S
C2692      C2693   1.399       .  A
C2692      H2703   1.084       .  S
C2693      C2694   1.422       .  A
C2693      C2698   1.401       .  A
C2694      C2695   1.412       .  A
C2695      C2696   1.391       .  A
C2695      H2704   1.078       .  S
C2696      C2697   1.399       .  A
C2696      H2705   1.084       .  S
C2697      C2698   1.398       .  A
C2698      H2706   1.085       .  S
C2707      C2708   1.402       .  A
C2707      C2712   1.399       .  A
C2708      C2709   1.396       .  A
C2708      H2721   1.084       .  S
C2709      C2710   1.413       .  A
C2709      H2722   1.078       .  S
C2710      C2716   1.433       .  A
C2710      C2711   1.425       .  A
C2711      C2713   1.399       .  A
C2711      C2712   1.411       .  A
C2712      H3713   1.084       .  S
C2713      C2714   1.392       .  A
C2713      H2724   1.084       .  S
C2714      C2715   1.401       .  A
C2714      H2725   1.084       .  S
C2715      C2716   1.421       .  A
C2715      C2720   1.406       .  A
C2716      C2717   1.419       .  A
C2717      C2718   1.402       .  A
C2717      H2726   1.078       .  S
C2718      C2719   1.397       .  A
C2718      H2727   1.083       .  S
C2719      C2720   1.404       .  A
C2720      H2728   1.085       .  S
H2723      C3702   1.084   1_545  S
C2729      C2730   1.398       .  A
C2729      C2734   1.405       .  A
C2730      C2731   1.406       .  A
C2730      H2743   1.083       .  S
C2731      C2732   1.420       .  A
C2731      H2744   1.077       .  S
C2732      C2738   1.438       .  A
C2732      C2733   1.421       .  A
C2733      C2735   1.401       .  A
C2733      C2734   1.407       .  A
C2734      H2745   1.085       .  S
C2735      C2736   1.392       .  A
C2735      H2746   1.084       .  S
C2736      C2737   1.399       .  A
C2736      H3737   1.084       .  S
C2737      C2738   1.426       .  A
C2737      C2742   1.414       .  A
C2738      C2739   1.414       .  A
C2739      C2740   1.400       .  A
C2739      H2748   1.077       .  S
C2740      C2741   1.403       .  A
C2740      H2749   1.084       .  S
C2741      C2742   1.401       .  A
C2742      H3740   1.084       .  S
H2747      C3726   1.084   1_545  S
H2750      C3732   1.085   1_545  S
C2751      C2752   1.403       .  A
C2751      C2756   1.403       .  A
C2752      C2753   1.401       .  A
C2752      H2765   1.084       .  S
C2753      C2754   1.414       .  A
C2753      H2766   1.078       .  S
C2754      C2760   1.440       .  A
C2754      C2755   1.425       .  A
C2755      C2757   1.401       .  A
C2755      C2756   1.417       .  A
C2756      H2767   1.084       .  S
C2757      C2758   1.395       .  A
C2757      H2768   1.084       .  S
C2758      C2759   1.402       .  A
C2758      H2769   1.084       .  S
C2759      C2760   1.421       .  A
C2759      C2764   1.411       .  A
C2760      C2761   1.420       .  A
C2761      C2762   1.406       .  A
C2761      H2770   1.078       .  S
C2762      C2763   1.399       .  A
C2762      H2771   1.083       .  S
C2763      C2764   1.407       .  A
C2764      H2772   1.085       .  S
C2773      C2774   1.401       .  A
C2773      C2778   1.402       .  A
C2774      C2775   1.397       .  A
C2774      H2787   1.083       .  S
C2775      C2776   1.415       .  A
C2775      H2788   1.077       .  S
C2776      C2782   1.429       .  A
C2776      C2777   1.422       .  A
C2777      C2779   1.399       .  A
C2777      C2778   1.403       .  A
C2778      H2789   1.084       .  S
C2779      C2780   1.389       .  A
C2780      C2781   1.398       .  A
C2780      H2791   1.084       .  S
C2781      C2782   1.423       .  A
C2781      C2786   1.403       .  A
C2782      C2783   1.415       .  A
C2783      C2784   1.395       .  A
C2783      H2792   1.077       .  S
C2784      C2785   1.397       .  A
C2784      H2793   1.083       .  S
C2785      C2786   1.396       .  A
C2786      H2794   1.085       .  S
C2795      C2796   1.397       .  A
C2795      C2800   1.396       .  A
C2796      C2797   1.397       .  A
C2796      H2809   1.084       .  S
C2797      C2798   1.416       .  A
C2797      H2810   1.078       .  S
C2798      C2804   1.431       .  A
C2798      C2799   1.424       .  A
C2799      C2801   1.398       .  A
C2799      C2800   1.403       .  A
C2800      H2811   1.085       .  S
C2801      C2802   1.389       .  A
C2801      H2812   1.084       .  S
C2802      C2803   1.399       .  A
C2802      H2813   1.084       .  S
C2803      C2804   1.423       .  A
C2803      C2808   1.405       .  A
C2804      C2805   1.415       .  A
C2805      C2806   1.397       .  A
C2805      H2814   1.078       .  S
C2806      C2807   1.402       .  A
C2806      H2815   1.083       .  S
C2807      C2808   1.401       .  A
C2808      H2816   1.085       .  S
C2817      C2818   1.397       .  A
C2817      C2822   1.395       .  A
C2818      C2819   1.394       .  A
C2818      H2831   1.083       .  S
C2819      C2820   1.415       .  A
C2819      H2832   1.077       .  S
C2820      C2826   1.428       .  A
C2820      C2821   1.423       .  A
C2821      C2823   1.398       .  A
C2821      C2822   1.403       .  A
C2822      H2833   1.085       .  S
C2823      C2824   1.389       .  A
C2823      H2834   1.084       .  S
C2824      C2825   1.399       .  A
C2824      H2835   1.084       .  S
C2825      C2826   1.423       .  A
C2825      C2830   1.404       .  A
C2826      C2827   1.414       .  A
C2827      C2828   1.395       .  A
C2827      H2836   1.077       .  S
C2828      C2829   1.400       .  A
C2828      H2837   1.083       .  S
C2829      C2830   1.401       .  A
C2830      H2838   1.084       .  S
C2839      C2840   1.397       .  A
C2839      C2844   1.404       .  A
C2840      C2841   1.398       .  A
C2840      H2853   1.083       .  S
C2841      C2842   1.418       .  A
C2841      H2854   1.077       .  S
C2842      C2848   1.426       .  A
C2842      C2843   1.418       .  A
C2843      C2845   1.401       .  A
C2843      C2844   1.400       .  A
C2844      H3845   1.085       .  S
C2845      C2846   1.390       .  A
C2845      H3846   1.084       .  S
C2846      C2847   1.399       .  A
C2846      H2857   1.084       .  S
C2847      C2848   1.425       .  A
C2847      C2852   1.407       .  A
C2848      C2849   1.410       .  A
C2849      C2850   1.391       .  A
C2849      H2858   1.077       .  S
C2850      C2851   1.401       .  A
C2850      H2859   1.084       .  S
C2851      C2852   1.399       .  A
C2852      H2860   1.085       .  S
H2855      C3834   1.085   1_545  S
H2856      C3835   1.084   1_545  S
C2861      C2862   1.396       .  A
C2861      C2866   1.401       .  A
C2862      C2863   1.396       .  A
C2862      H2875   1.083       .  S
C2863      C2864   1.418       .  A
C2863      H2876   1.077       .  S
C2864      C2870   1.423       .  A
C2864      C2865   1.418       .  A
C2865      C2867   1.400       .  A
C2865      C2866   1.396       .  A
C2866      H2877   1.085       .  S
C2867      C2868   1.388       .  A
C2867      H2878   1.084       .  S
C2868      C2869   1.397       .  A
C2868      H2879   1.084       .  S
C2869      C2870   1.425       .  A
C2869      C2874   1.404       .  A
C2870      C2871   1.410       .  A
C2871      C2872   1.388       .  A
C2871      H2880   1.077       .  S
C2872      C2873   1.401       .  A
C2873      C2874   1.395       .  A
C2874      H2882   1.085       .  S
C2883      C2884   1.400       .  A
C2883      C2888   1.398       .  A
C2884      C2885   1.388       .  A
C2884      H2897   1.084       .  S
C2885      C2886   1.409       .  A
C2885      H2898   1.078       .  S
C2886      C2892   1.425       .  A
C2886      C2887   1.425       .  A
C2887      C2889   1.399       .  A
C2887      C2888   1.407       .  A
C2888      H2899   1.085       .  S
C2889      C2890   1.391       .  A
C2889      H2900   1.084       .  S
C2890      C2891   1.401       .  A
C2890      H2901   1.084       .  S
C2891      C2892   1.418       .  A
C2891      C2896   1.400       .  A
C2892      C2893   1.418       .  A
C2893      C2894   1.396       .  A
C2893      H2902   1.078       .  S
C2894      C2895   1.396       .  A
C2894      H2903   1.083       .  S
C2895      C2896   1.404       .  A
C2896      H2904   1.085       .  S
C2905      C2906   1.395       .  A
C2905      C2910   1.397       .  A
C2906      C2907   1.394       .  A
C2906      H2919   1.084       .  S
C2907      C2908   1.415       .  A
C2907      H2920   1.077       .  S
C2908      C2914   1.428       .  A
C2908      C2909   1.424       .  A
C2909      C2911   1.398       .  A
C2909      C2910   1.404       .  A
C2910      H2921   1.085       .  S
C2911      C2912   1.390   1_545  A
C2911      H2922   1.084       .  S
C2912      C2913   1.400       .  A
C2912      H2923   1.084       .  S
C2913      C2914   1.422   1_565  A
C2913      C3908   1.404       .  A
C2914      C3905   1.415       .  A
C2915      C3904   1.414       .  A
C2915      C2916   1.393       .  A
C2915      H2924   1.077       .  S
C2916      C2917   1.399       .  A
C2916      H2925   1.083       .  S
C2917      C2918   1.402       .  A
C2918      C3903   1.404       .  A
C2918      H2926   1.084       .  S
C2927      C2928   1.397       .  A
C2927      C2932   1.398       .  A
C2928      C2929   1.395       .  A
C2928      H2941   1.083       .  S
C2929      C2930   1.416       .  A
C2929      H2942   1.077       .  S
C2930      C2936   1.429       .  A
C2930      C2931   1.423       .  A
C2931      C2932   1.404       .  A
C2932      H2943   1.085       .  S
C2933      C2934   1.390       .  A
C2933      H2944   1.084       .  S
C2934      C2935   1.400       .  A
C2934      H2945   1.084       .  S
C2935      C2940   1.405       .  A
C2936      C2937   1.414   1_655  A
C2937      H2946   1.077       .  S
C2938      C2939   1.399       .  A
C2938      H2947   1.083       .  S
C2939      C2940   1.401       .  A
C2940      H2948   1.085       .  S
C2949      C2950   1.393       .  A
C2949      C2954   1.398       .  A
C2950      C2951   1.392       .  A
C2950      H2963   1.084       .  S
C2951      C2952   1.416       .  A
C2951      H2964   1.076       .  S
C2952      C2958   1.427       .  A
C2952      C2953   1.423       .  A
C2953      C2955   1.399       .  A
C2953      C2954   1.404       .  A
C2954      H2965   1.085       .  S
C2955      C2956   1.391       .  A
C2955      H2966   1.084       .  S
C2956      C2957   1.400       .  A
C2956      H2967   1.084       .  S
C2957      C2958   1.422       .  A
C2957      C2962   1.406       .  A
C2958      C2959   1.414       .  A
C2959      C2960   1.393       .  A
C2959      H2968   1.076       .  S
C2960      C2961   1.400       .  A
C2960      H2969   1.083       .  S
C2961      C2962   1.403       .  A
C2962      H2970   1.084       .  S
Zn2971     O2975   1.968       .  S
Zn2971     O2976   2.032       .  S
Zn2971     O2980   2.056       .  S
Zn2971     O2987   2.021       .  S
Zn2972     O2975   1.957       .  S
Zn2972     O2977   2.040       .  S
Zn2972     O2979   2.003       .  S
Zn2972     O2983   2.012       .  S
Zn2973     O2975   1.912       .  S
Zn2973     O2978   1.956       .  S
Zn2973     O2981   1.957       .  S
Zn2973     O2984   1.960       .  S
Zn2974     O2975   1.963       .  S
Zn2974     O2982   2.058       .  S
Zn2974     O2985   2.022       .  S
Zn2974     O2986   2.030       .  S
O2976      C2988   1.276       .  A
O2977      C2989   1.274       .  A
O2978      C2990   1.266       .  A
O2979      C2988   1.274       .  A
O2980      C2990   1.276       .  A
O2981      C2989   1.266       .  A
O2982      C2991   1.277       .  A
O2983      C2992   1.274       .  A
O2984      C2991   1.267       .  A
O2985      C2992   1.275       .  A
O2986      C2993   1.277       .  A
O2987      C2993   1.276       .  A
C2988      C3951   1.479       .  S
C2989      C3885   1.472       .  S
C2990      C3851   1.471       .  S
C2991      C3841   1.476       .  S
C2992      C3907   1.479       .  S
C2993      C3929   1.479       .  S
Zn2994     O2998   1.905       .  S
Zn2994     O3003   1.942   1_445  S
Zn2995     O3002   2.054       .  S
Zn2996     O2998   1.959   1_665  S
Zn2996     O3001   2.037       .  S
Zn2996     O3004   2.019       .  S
Zn2997     O3008   2.006       .  S
Zn2997     O3009   2.047       .  S
O2999      C3011   1.265       .  A
O3000      C3012   1.276       .  A
O3001      C3013   1.274       .  A
O3002      C3011   1.276       .  A
O3003      C3013   1.264       .  A
O3004      C3012   1.276       .  A
O3005      C3014   1.277       .  A
O3006      C3015   1.275       .  A
O3007      C3014   1.273       .  A
O3008      C3015   1.274       .  A
O3009      C3016   1.275       .  A
O3010      C3016   1.266       .  A
C3011      C3829   1.476       .  S
C3012      C3763   1.482       .  S
C3013      C3873   1.467       .  S
C3014      C3797   1.473       .  S
C3015      C3819   1.475       .  S
C3016      C3863   1.469       .  S
C3017      H3018   1.110       .  S
C3017      C3023   1.553       .  S
C3017      C3022   1.553       .  S
C3017      C3021   1.559       .  S
C3019      H3020   1.110       .  S
C3019      C3025   1.525       .  S
C3019      C3024   1.528       .  S
C3019      C3026   1.523       .  S
C3021      C3024   1.382       .  D
C3021      C3709   1.496       .  S
C3022      C3025   1.370       .  D
C3022      C3719   1.488       .  S
C3023      C3026   1.375       .  D
C3023      C3741   1.491       .  S
C3024      C3653   1.495       .  S
C3025      C3643   1.477       .  S
C3026      C3675   1.483       .  S
C3027      H3028   1.109   1_455  S
C3027      C3033   1.526   1_445  S
C3029      H3030   1.111       .  S
C3029      C3036   1.549   1_445  S
C3031      C3034   1.375       .  D
C3031      C3609   1.480       .  S
C3032      C3035   1.371       .  D
C3032      C3587   1.481       .  S
C3033      C3036   1.370       .  D
C3033      C3565   1.477       .  S
C3034      C3753   1.494       .  S
C3035      C3697   1.494       .  S
C3036      C3731   1.488       .  S
C3037      H3038   1.111       .  S
C3037      C3043   1.554       .  S
C3037      C3042   1.555       .  S
C3037      C3041   1.558       .  S
C3039      H3040   1.111       .  S
C3039      C3045   1.525       .  S
C3039      C3044   1.529       .  S
C3039      C3046   1.521       .  S
C3041      C3044   1.381       .  D
C3041      C3555   1.494       .  S
C3042      C3045   1.375       .  D
C3042      C3499   1.493       .  S
C3043      C3046   1.374       .  D
C3043      C3521   1.493       .  S
C3044      C3489   1.494       .  S
C3045      C3445   1.483       .  S
C3046      C3455   1.480       .  S
C3047      H3048   1.112       .  S
C3047      C3053   1.522       .  S
C3047      C3052   1.523       .  S
C3047      C3051   1.521       .  S
C3049      H3050   1.110       .  S
C3049      C3055   1.556       .  S
C3049      C3054   1.559       .  S
C3049      C3056   1.561       .  S
C3051      C3054   1.372       .  D
C3051      C3939   1.476       .  S
C3052      C3055   1.374       .  D
C3052      C3895   1.476       .  S
C3053      C3056   1.374       .  D
C3053      C3917   1.479       .  S
C3054      C3543   1.495       .  S
C3055      C3511   1.493       .  S
C3056      C3533   1.497       .  S
Zn3057     O3061   1.959       .  S
Zn3057     O3062   2.013       .  S
Zn3057     O3066   2.012       .  S
Zn3057     O3073   2.024       .  S
Zn3058     O3061   1.959       .  S
Zn3058     O3063   2.018       .  S
Zn3058     O3065   1.997       .  S
Zn3058     O3069   2.035       .  S
Zn3059     O3061   1.967       .  S
Zn3059     O3064   2.032       .  S
Zn3059     O3067   2.004       .  S
Zn3059     O3070   2.025       .  S
Zn3060     O3061   1.940       .  S
Zn3060     O3068   1.996       .  S
Zn3060     O3071   2.007       .  S
Zn3060     O3072   1.997       .  S
O3062      C3074   1.274       .  A
O3063      C3075   1.275       .  A
O3064      C3076   1.274       .  A
O3065      C3074   1.272       .  A
O3066      C3076   1.274       .  A
O3067      C3075   1.273       .  A
O3068      C3077   1.272       .  A
O3069      C3078   1.275       .  A
O3070      C3077   1.275       .  A
O3071      C3078   1.272       .  A
O3072      C3079   1.271       .  A
O3073      C3079   1.274       .  A
C3074      C3411   1.478       .  S
C3075      C3401   1.481       .  S
C3076      C3379   1.486       .  S
C3077      C3467   1.470       .  S
C3078      C3477   1.481       .  S
C3079      C3433   1.475       .  S
Zn3080     O3089   2.021       .  S
Zn3081     O3086   2.022       .  S
Zn3081     O3088   2.001       .  S
Zn3082     O3084   1.945       .  S
Zn3082     O3093   2.008       .  S
Zn3083     O3084   1.971       .  S
Zn3083     O3091   2.040       .  S
Zn3083     O3095   2.009       .  S
O3085      C3097   1.274       .  A
O3086      C3098   1.273       .  A
O3087      C3099   1.269       .  A
O3088      C3097   1.273       .  A
O3089      C3099   1.274       .  A
O3090      C3098   1.269       .  A
O3091      C3100   1.277       .  A
O3092      C3101   1.271       .  A
O3093      C3100   1.274       .  A
O3094      C3101   1.276   1_455  A
O3095      C3102   1.273       .  A
O3096      C3102   1.273       .  A
C3097      C3389   1.479       .  S
C3098      C3631   1.468       .  S
C3099      C3665   1.471       .  S
C3100      C3687   1.476       .  S
C3101      C3367   1.485       .  S
C3102      C3423   1.479       .  S
C3103      H3104   1.110       .  S
C3103      C3109   1.554       .  S
C3103      C3108   1.557       .  S
C3103      C3107   1.555       .  S
C3105      H3106   1.112       .  S
C3105      C3111   1.521       .  S
C3105      C3110   1.521       .  S
C3105      C3112   1.521       .  S
C3107      C3110   1.371       .  D
C3107      C3345   1.493       .  S
C3108      C3111   1.372       .  D
C3108      C3301   1.492       .  S
C3109      C3112   1.376       .  D
C3109      C3335   1.487       .  S
C3110      C3807   1.472       .  S
C3111      C3785   1.471       .  S
C3112      C3775   1.479       .  S
C3113      H3114   1.113       .  S
C3113      C3117   1.518   1_455  S
C3115      H3116   1.110       .  S
C3115      C3122   1.559       .  S
C3117      C3120   1.371       .  D
C3117      C3269   1.469       .  S
C3118      C3121   1.373       .  D
C3118      C3235   1.471       .  S
C3119      C3122   1.373       .  D
C3119      C3279   1.474       .  S
C3120      C3313   1.492       .  S
C3121      C3323   1.492       .  S
C3122      C3357   1.491       .  S
Zn3123     O3127   1.954       .  S
Zn3123     O3128   2.007       .  S
Zn3123     O3132   2.007       .  S
Zn3123     O3139   2.017       .  S
Zn3124     O3127   1.959       .  S
Zn3124     O3129   2.010       .  S
Zn3124     O3131   2.010       .  S
Zn3124     O3135   2.039       .  S
Zn3125     O3127   1.950       .  S
Zn3125     O3130   2.002       .  S
Zn3125     O3133   1.997       .  S
Zn3125     O3136   2.012       .  S
Zn3126     O3127   1.932       .  S
Zn3126     O3134   1.988       .  S
Zn3126     O3137   1.973       .  S
Zn3126     O3138   1.983       .  S
O3128      C3140   1.274       .  A
O3129      C3141   1.273       .  A
O3130      C3142   1.270       .  A
O3131      C3140   1.274       .  A
O3132      C3142   1.271       .  A
O3133      C3141   1.272       .  A
O3134      C3143   1.270       .  A
O3135      C3144   1.275       .  A
O3136      C3143   1.273       .  A
O3137      C3144   1.268       .  A
O3138      C3145   1.269       .  A
O3139      C3145   1.273       .  A
C3140      C3191   1.474       .  S
C3141      C3169   1.473       .  S
C3142      C3213   1.468       .  S
C3143      C3621   1.467       .  S
C3144      C3577   1.468       .  S
C3145      C3599   1.465       .  S
Zn3146     O3150   1.909       .  S
Zn3146     O3151   1.971       .  S
Zn3146     O3155   1.974       .  S
Zn3146     O3162   1.967       .  S
Zn3147     O3150   1.956       .  S
Zn3147     O3152   2.012       .  S
Zn3147     O3154   2.043       .  S
Zn3147     O3158   2.007       .  S
Zn3148     O3150   1.951       .  S
Zn3148     O3153   2.032       .  S
Zn3148     O3156   1.996       .  S
Zn3148     O3159   2.025       .  S
Zn3149     O3150   1.948       .  S
Zn3149     O3157   2.000       .  S
Zn3149     O3160   2.007       .  S
Zn3149     O3161   2.022       .  S
O3151      C3163   1.268       .  A
O3152      C3164   1.274       .  A
O3153      C3165   1.274       .  A
O3154      C3163   1.275       .  A
O3155      C3165   1.268       .  A
O3156      C3164   1.273       .  A
O3157      C3166   1.273       .  A
O3158      C3167   1.274       .  A
O3159      C3166   1.275       .  A
O3160      C3167   1.274       .  A
O3161      C3168   1.272       .  A
O3162      C3168   1.267       .  A
C3163      C3225   1.471       .  S
C3164      C3247   1.470       .  S
C3165      C3181   1.467       .  S
C3166      C3291   1.475       .  S
C3167      C3257   1.477       .  S
C3168      C3203   1.460       .  S
C3169      C3170   1.401       .  A
C3169      C3174   1.400       .  A
C3170      C3171   1.395       .  A
C3170      H3183   1.083       .  S
C3171      C3172   1.413       .  A
C3171      H3184   1.078       .  S
C3172      C3178   1.424       .  A
C3172      C3173   1.421       .  A
C3173      C3175   1.399       .  A
C3173      C3174   1.401       .  A
C3174      H3185   1.085       .  S
C3175      C3176   1.389       .  A
C3175      H3186   1.084       .  S
C3176      C3177   1.399       .  A
C3176      H3187   1.084       .  S
C3177      C3178   1.420       .  A
C3177      C3182   1.400   1_556  A
C3178      C3179   1.415   1_556  A
C3179      C3180   1.396       .  A
C3179      H3188   1.078       .  S
C3180      C3181   1.397       .  A
C3180      H3189   1.083       .  S
C3181      C3182   1.400       .  A
C3182      H3190   1.085       .  S
C3191      C3192   1.401       .  A
C3191      C3196   1.401       .  A
C3192      C3193   1.393       .  A
C3192      H3205   1.083       .  S
C3193      C3194   1.412       .  A
C3193      H3206   1.078       .  S
C3194      C3195   1.422       .  A
C3195      C3197   1.399   1_565  A
C3195      C3196   1.403       .  A
C3196      H3207   1.085       .  S
C3197      H3208   1.084       .  S
C3198      C3199   1.400       .  A
C3198      H3209   1.084       .  S
C3199      C3200   1.419       .  A
C3199      C3204   1.398   1_556  A
C3200      C3201   1.416   1_556  A
C3201      C3202   1.394       .  A
C3201      H3210   1.078       .  S
C3202      C3203   1.395       .  A
C3202      H3211   1.084       .  S
C3203      C3204   1.399       .  A
C3204      H3212   1.085       .  S
C3213      C3214   1.396       .  A
C3213      C3218   1.400       .  A
C3214      C3215   1.394       .  A
C3214      H3227   1.084       .  S
C3215      C3216   1.417       .  A
C3215      H3228   1.076       .  S
C3216      C3217   1.421       .  A
C3217      C3219   1.400       .  A
C3217      C3218   1.402       .  A
C3218      H3229   1.085       .  S
C3219      H3230   1.084       .  S
C3220      C3221   1.398   1_455  A
C3220      H3231   1.084       .  S
C3221      C3222   1.425   1_554  A
C3221      C3226   1.406       .  A
C3222      C3223   1.412       .  A
C3223      C3224   1.392   1_556  A
C3223      H3232   1.077       .  S
C3224      C3225   1.400       .  A
C3224      H3233   1.084       .  S
C3225      C3226   1.398       .  A
C3226      H3234   1.085       .  S
C3235      C3236   1.394       .  A
C3235      C3240   1.396       .  A
C3236      C3237   1.392       .  A
C3236      H3249   1.084       .  S
C3237      C3238   1.415       .  A
C3237      H3250   1.077       .  S
C3238      C3244   1.425       .  A
C3238      C3239   1.423       .  A
C3239      C3241   1.399       .  A
C3239      C3240   1.402       .  A
C3241      C3242   1.389       .  A
C3242      C3243   1.399       .  A
C3242      H3253   1.084       .  S
C3243      C3244   1.423       .  A
C3243      C3248   1.403       .  A
C3244      C3245   1.414       .  A
C3245      C3246   1.392       .  A
C3245      H3254   1.077       .  S
C3246      C3247   1.398       .  A
C3246      H3255   1.084       .  S
C3247      C3248   1.399       .  A
C3248      H3256   1.085       .  S
C3257      C3258   1.401       .  A
C3257      C3262   1.401       .  A
C3258      C3259   1.394       .  A
C3258      H3271   1.083       .  S
C3259      C3260   1.414       .  A
C3259      H3272   1.077       .  S
C3260      C3266   1.426       .  A
C3260      C3261   1.422       .  A
C3261      C3263   1.399       .  A
C3261      C3262   1.401       .  A
C3262      H3273   1.085       .  S
C3263      C3264   1.388       .  A
C3263      H3274   1.084       .  S
C3264      C3265   1.398       .  A
C3264      H3275   1.084   1_655  S
C3265      C3266   1.423       .  A
C3265      C3270   1.401       .  A
C3266      C3267   1.416       .  A
C3267      C3268   1.393       .  A
C3267      H3276   1.077       .  S
C3268      C3269   1.395       .  A
C3268      H3277   1.084       .  S
C3269      C3270   1.394       .  A
C3270      H3278   1.085   1_655  S
C3279      C3280   1.395       .  A
C3279      C3284   1.398       .  A
C3280      C3281   1.391       .  A
C3280      H3293   1.084       .  S
C3281      C3282   1.415       .  A
C3281      H3294   1.076       .  S
C3282      C3288   1.426       .  A
C3282      C3283   1.423       .  A
C3283      C3285   1.399       .  A
C3283      C3284   1.403       .  A
C3284      H3295   1.084       .  S
C3285      C3286   1.390       .  A
C3285      H3296   1.084       .  S
C3286      C3287   1.400       .  A
C3286      H3297   1.084       .  S
C3287      C3288   1.422       .  A
C3287      C3292   1.405       .  A
C3288      C3289   1.414       .  A
C3289      C3290   1.392       .  A
C3289      H3298   1.076       .  S
C3290      C3291   1.399       .  A
C3290      H3299   1.084       .  S
C3291      C3292   1.401       .  A
C3292      H3300   1.084       .  S
C3301      C3302   1.401       .  A
C3301      C3306   1.402       .  A
C3302      C3303   1.399       .  A
C3302      H3315   1.084       .  S
C3303      C3304   1.414       .  A
C3303      H3316   1.078       .  S
C3304      C3310   1.437       .  A
C3304      C3305   1.425       .  A
C3305      C3307   1.400       .  A
C3305      C3306   1.414       .  A
C3306      H3317   1.085       .  S
C3307      C3308   1.394       .  A
C3307      H3318   1.084       .  S
C3308      C3309   1.402       .  A
C3309      C3310   1.421       .  A
C3309      C3314   1.409       .  A
C3310      C3311   1.419       .  A
C3311      C3312   1.404       .  A
C3311      H3320   1.078       .  S
C3312      C3313   1.397       .  A
C3313      C3314   1.406       .  A
C3323      C3324   1.404       .  A
C3323      C3328   1.398       .  A
C3324      C3325   1.398       .  A
C3324      H3337   1.084       .  S
C3325      C3326   1.413       .  A
C3325      H3338   1.077       .  S
C3326      C3332   1.436       .  A
C3326      C3327   1.426       .  A
C3327      C3329   1.399       .  A
C3327      C3328   1.411       .  A
C3329      C3330   1.390       .  A
C3330      C3331   1.400       .  A
C3330      H3341   1.084       .  S
C3331      C3332   1.421       .  A
C3331      C3336   1.404       .  A
C3332      C3333   1.420       .  A
C3333      C3334   1.404       .  A
C3333      H3342   1.078       .  S
C3334      C3335   1.397       .  A
C3334      H3343   1.083       .  S
C3335      C3336   1.401       .  A
C3336      H3344   1.085       .  S
C3345      C3346   1.403       .  A
C3345      C3350   1.400       .  A
C3346      C3347   1.400       .  A
C3346      H3359   1.084       .  S
C3347      C3348   1.414       .  A
C3347      H3360   1.078       .  S
C3348      C3354   1.438       .  A
C3348      C3349   1.426       .  A
C3349      C3351   1.399       .  A
C3349      C3350   1.414       .  A
C3350      H3361   1.084       .  S
C3351      C3352   1.392       .  A
C3351      H3362   1.084       .  S
C3352      C3353   1.400       .  A
C3352      H3363   1.084       .  S
C3353      C3354   1.422       .  A
C3353      C3358   1.408       .  A
C3354      C3355   1.420       .  A
C3355      C3356   1.405       .  A
C3355      H3364   1.078       .  S
C3356      C3357   1.399       .  A
C3356      H3365   1.083       .  S
C3357      C3358   1.403       .  A
C3358      H3366   1.085       .  S
C3367      C3368   1.402       .  A
C3367      C3372   1.404       .  A
C3368      C3369   1.391       .  A
C3368      H3381   1.083       .  S
C3369      C3370   1.412       .  A
C3369      H3382   1.077       .  S
C3370      C3376   1.430       .  A
C3370      C3371   1.423       .  A
C3371      C3373   1.400       .  A
C3371      C3372   1.410       .  A
C3372      H3383   1.084   1_655  S
C3373      C3374   1.393       .  A
C3373      H3384   1.084   1_655  S
C3374      C3375   1.401       .  A
C3374      H3385   1.084       .  S
C3375      C3376   1.422       .  A
C3375      C3380   1.410       .  A
C3376      C3377   1.414       .  A
C3377      C3378   1.393       .  A
C3377      H3386   1.077       .  S
C3378      C3379   1.401       .  A
C3378      H3387   1.083       .  S
C3379      C3380   1.406       .  A
C3380      H3388   1.084       .  S
C3389      C3390   1.401       .  A
C3389      C3394   1.402       .  A
C3390      C3391   1.394       .  A
C3390      H3403   1.083       .  S
C3391      C3392   1.414       .  A
C3391      H3404   1.077       .  S
C3392      C3398   1.428       .  A
C3392      C3393   1.422       .  A
C3393      C3395   1.399       .  A
C3393      C3394   1.404       .  A
C3394      H3405   1.084       .  S
C3395      C3396   1.389       .  A
C3395      H3406   1.084   1_655  S
C3396      C3397   1.399       .  A
C3396      H3407   1.084       .  S
C3397      C3398   1.422       .  A
C3397      C3402   1.403       .  A
C3398      C3399   1.414       .  A
C3399      C3400   1.395       .  A
C3399      H3408   1.077       .  S
C3400      C3401   1.401       .  A
C3400      H3409   1.083       .  S
C3401      C3402   1.403       .  A
C3402      H3410   1.085       .  S
C3411      C3412   1.400       .  A
C3411      C3416   1.402       .  A
C3412      C3413   1.395       .  A
C3412      H3425   1.083       .  S
C3413      C3414   1.415       .  A
C3413      H3426   1.077       .  S
C3414      C3420   1.427       .  A
C3414      C3415   1.421       .  A
C3415      C3417   1.399       .  A
C3415      C3416   1.401       .  A
C3416      H3427   1.084       .  S
C3417      C3418   1.388       .  A
C3417      H3428   1.084       .  S
C3418      C3419   1.399       .  A
C3418      H3429   1.084       .  S
C3419      C3420   1.422       .  A
C3419      C3424   1.402       .  A
C3420      C3421   1.414       .  A
C3421      C3422   1.395       .  A
C3421      H3430   1.077       .  S
C3422      C3423   1.402       .  A
C3422      H3431   1.083       .  S
C3423      C3424   1.402       .  A
C3424      H3432   1.084       .  S
C3433      C3434   1.399       .  A
C3433      C3438   1.401       .  A
C3434      C3435   1.397       .  A
C3434      H3447   1.083       .  S
C3436      C3442   1.426       .  A
C3437      C3439   1.400       .  A
C3437      C3438   1.402       .  A
C3438      H3449   1.085       .  S
C3439      H3450   1.084       .  S
C3440      C3441   1.399       .  A
C3440      H3451   1.084       .  S
C3441      C3442   1.423       .  A
C3441      C3446   1.404       .  A
C3442      C3443   1.413       .  A
C3443      C3444   1.393       .  A
C3443      H3452   1.077       .  S
C3444      C3445   1.398       .  A
C3444      H3453   1.084       .  S
C3445      C3446   1.401       .  A
C3446      H3454   1.083       .  S
C3455      C3456   1.396       .  A
C3455      C3460   1.400       .  A
C3456      C3457   1.390       .  A
C3456      H3469   1.082       .  S
C3457      C3458   1.414       .  A
C3457      H3470   1.077       .  S
C3458      C3464   1.425       .  A
C3458      C3459   1.422       .  A
C3459      C3461   1.400       .  A
C3459      C3460   1.405       .  A
C3460      H3471   1.085       .  S
C3461      H3472   1.084       .  S
C3462      C3463   1.400       .  A
C3462      H3473   1.084       .  S
C3463      C3468   1.406   1_455  A
C3464      C3465   1.413       .  A
C3465      H3474   1.077       .  S
C3466      C3467   1.398       .  A
C3466      H3475   1.084       .  S
C3467      C3468   1.400       .  A
C3468      H3476   1.084       .  S
C3477      C3478   1.401       .  A
C3477      C3482   1.401       .  A
C3478      C3479   1.400       .  A
C3478      H3491   1.083       .  S
C3479      C3480   1.416       .  A
C3479      H3492   1.078       .  S
C3480      C3486   1.431       .  A
C3480      C3481   1.422       .  A
C3481      C3483   1.399       .  A
C3481      C3482   1.403       .  A
C3482      H3493   1.085       .  S
C3483      C3484   1.388       .  A
C3483      H3494   1.084       .  S
C3484      C3485   1.398       .  A
C3484      H3495   1.084       .  S
C3485      C3486   1.422       .  A
C3485      C3490   1.402       .  A
C3486      C3487   1.414       .  A
C3487      C3488   1.398       .  A
C3487      H3496   1.078       .  S
C3488      C3489   1.403       .  A
C3488      H3497   1.083       .  S
C3489      C3490   1.401       .  A
C3490      H3498   1.080       .  S
C3499      C3500   1.401       .  A
C3499      C3504   1.402       .  A
C3500      C3501   1.400       .  A
C3500      H3513   1.084       .  S
C3501      C3502   1.414       .  A
C3501      H3514   1.077       .  S
C3502      C3503   1.425       .  A
C3503      C3505   1.400       .  A
C3503      C3504   1.414       .  A
C3504      H3515   1.085       .  S
C3505      H3516   1.084       .  S
C3506      C3507   1.401       .  A
C3506      H3517   1.084       .  S
C3507      C3508   1.421       .  A
C3507      C3512   1.408       .  A
C3508      C3509   1.419       .  A
C3509      C3510   1.404       .  A
C3509      H3518   1.077       .  S
C3510      C3511   1.397       .  A
C3510      H3519   1.083       .  S
C3511      C3512   1.405       .  A
C3512      H3520   1.085       .  S
C3521      C3522   1.403       .  A
C3521      C3526   1.400       .  A
C3522      C3523   1.400       .  A
C3522      H3535   1.084       .  S
C3523      C3524   1.414       .  A
C3523      H3536   1.078       .  S
C3524      C3525   1.426       .  A
C3525      C3527   1.399       .  A
C3525      C3526   1.413       .  A
C3526      H3537   1.085       .  S
C3527      C3528   1.392       .  A
C3527      H3538   1.084       .  S
C3528      H3539   1.084       .  S
C3529      C3530   1.421       .  A
C3529      C3534   1.410       .  A
C3530      C3531   1.420       .  A
C3531      C3532   1.406       .  A
C3531      H3540   1.077       .  S
C3532      C3533   1.399       .  A
C3532      H3541   1.083       .  S
C3533      C3534   1.406       .  A
C3534      H3542   1.085       .  S
C3543      C3544   1.400       .  A
C3543      C3548   1.403       .  A
C3544      C3545   1.407       .  A
C3544      H3557   1.083       .  S
C3545      C3546   1.420       .  A
C3545      H3558   1.078       .  S
C3546      C3552   1.440       .  A
C3546      C3547   1.422       .  A
C3547      C3549   1.400       .  A
C3547      C3548   1.409       .  A
C3548      H3559   1.085       .  S
C3549      C3550   1.391       .  A
C3549      H3560   1.084       .  S
C3550      C3551   1.399       .  A
C3550      H3561   1.084       .  S
C3551      C3552   1.426       .  A
C3551      C3556   1.413       .  A
C3552      C3553   1.416       .  A
C3553      C3554   1.403       .  A
C3553      H3562   1.078       .  S
C3554      C3555   1.403       .  A
C3554      H3563   1.083       .  S
C3555      C3556   1.401       .  A
C3556      H3564   1.085       .  S
C3565      C3566   1.397       .  A
C3565      C3570   1.396       .  A
C3566      C3567   1.393       .  A
C3566      H3579   1.083       .  S
C3567      C3568   1.416       .  A
C3567      H3580   1.078       .  S
C3568      C3574   1.424       .  A
C3568      C3569   1.420       .  A
C3569      C3571   1.400       .  A
C3569      C3570   1.400       .  A
C3570      H3581   1.078       .  S
C3571      C3572   1.390       .  A
C3571      H3582   1.084       .  S
C3572      C3573   1.399       .  A
C3572      H3583   1.084       .  S
C3573      C3574   1.424       .  A
C3573      C3578   1.405       .  A
C3574      C3575   1.411       .  A
C3575      C3576   1.391       .  A
C3575      H3584   1.078       .  S
C3576      C3577   1.399       .  A
C3576      H3585   1.084       .  S
C3577      C3578   1.398       .  A
C3578      H3586   1.085       .  S
C3587      C3588   1.398       .  A
C3587      C3592   1.395       .  A
C3588      C3589   1.396       .  A
C3589      C3590   1.416       .  A
C3589      H3602   1.078       .  S
C3590      C3596   1.424       .  A
C3590      C3591   1.420       .  A
C3591      C3593   1.399       .  A
C3591      C3592   1.397       .  A
C3593      C3594   1.388       .  A
C3594      C3595   1.399       .  A
C3594      H3605   1.084       .  S
C3595      C3596   1.423       .  A
C3595      C3600   1.402       .  A
C3596      C3597   1.413       .  A
C3597      C3598   1.393       .  A
C3597      H3606   1.078       .  S
C3598      C3599   1.399       .  A
C3598      H3607   1.084       .  S
C3599      C3600   1.397       .  A
C3600      H3608   1.085       .  S
C3609      C3610   1.398       .  A
C3609      C3614   1.400       .  A
C3610      C3611   1.390       .  A
C3611      C3612   1.412       .  A
C3611      H3624   1.078       .  S
C3612      C3618   1.423       .  A
C3612      C3613   1.422       .  A
C3613      C3615   1.399       .  A
C3613      C3614   1.401       .  A
C3614      H3625   1.083       .  S
C3615      C3616   1.390       .  A
C3615      H3626   1.084       .  S
C3616      C3617   1.400       .  A
C3616      H3627   1.084       .  S
C3617      C3618   1.421       .  A
C3617      C3622   1.401       .  A
C3618      C3619   1.415       .  A
C3619      C3620   1.393       .  A
C3619      H3628   1.078       .  S
C3620      C3621   1.397       .  A
C3620      H3629   1.084       .  S
C3621      C3622   1.400       .  A
C3622      H3630   1.085       .  S
C3631      C3632   1.396       .  A
C3631      C3636   1.402       .  A
C3632      C3633   1.393       .  A
C3632      H3645   1.084       .  S
C3633      C3634   1.415       .  A
C3633      H3646   1.078       .  S
C3634      C3640   1.423       .  A
C3634      C3635   1.420       .  A
C3635      C3637   1.401       .  A
C3635      C3636   1.404       .  A
C3636      H3647   1.085       .  S
C3637      C3638   1.393       .  A
C3637      H3648   1.084       .  S
C3638      C3639   1.400       .  A
C3638      H3649   1.084       .  S
C3639      C3640   1.422       .  A
C3639      C3644   1.406       .  A
C3640      C3641   1.412       .  A
C3641      C3642   1.390       .  A
C3641      H3650   1.078       .  S
C3642      C3643   1.394       .  A
C3642      H3651   1.079       .  S
C3643      C3644   1.400       .  A
C3644      H3652   1.084       .  S
C3653      C3654   1.403       .  A
C3653      C3658   1.403       .  A
C3654      C3655   1.394       .  A
C3654      H3667   1.081       .  S
C3655      C3656   1.412       .  A
C3655      H3668   1.079       .  S
C3656      C3662   1.423       .  A
C3656      C3657   1.418       .  A
C3657      C3659   1.400       .  A
C3657      C3658   1.400       .  A
C3658      H3669   1.078       .  S
C3659      C3660   1.389       .  A
C3659      H3670   1.084       .  S
C3660      C3661   1.399       .  A
C3660      H3671   1.084       .  S
C3661      C3662   1.422       .  A
C3661      C3666   1.402       .  A
C3662      C3663   1.412       .  A
C3663      C3664   1.393       .  A
C3663      H3672   1.079       .  S
C3664      C3665   1.401       .  A
C3664      H3673   1.084       .  S
C3665      C3666   1.399       .  A
C3666      H3674   1.085       .  S
C3675      C3676   1.398       .  A
C3675      C3680   1.400       .  A
C3676      C3677   1.393       .  A
C3676      H3689   1.082       .  S
C3677      C3678   1.415       .  A
C3677      H3690   1.077       .  S
C3678      C3684   1.427       .  A
C3678      C3679   1.421       .  A
C3679      C3681   1.400       .  A
C3679      C3680   1.404       .  A
C3680      H3691   1.085       .  S
C3681      C3682   1.392       .  A
C3681      H3692   1.084       .  S
C3682      C3683   1.400       .  A
C3682      H3693   1.084       .  S
C3683      C3684   1.423       .  A
C3683      C3688   1.408       .  A
C3684      C3685   1.413       .  A
C3685      C3686   1.393       .  A
C3685      H3694   1.077       .  S
C3686      C3687   1.399       .  A
C3686      H3695   1.084       .  S
C3687      C3688   1.402       .  A
C3688      H3696   1.085       .  S
C3697      C3698   1.404       .  A
C3697      C3702   1.400       .  A
C3698      C3699   1.398       .  A
C3698      H3711   1.084       .  S
C3699      C3700   1.413       .  A
C3699      H3712   1.078       .  S
C3700      C3706   1.436       .  A
C3700      C3701   1.425       .  A
C3701      C3703   1.400       .  A
C3701      C3702   1.414       .  A
C3703      C3704   1.393       .  A
C3703      H3714   1.084   1_565  S
C3704      C3705   1.402       .  A
C3704      H3715   1.084       .  S
C3705      C3706   1.421       .  A
C3705      C3710   1.409       .  A
C3706      C3707   1.419       .  A
C3707      C3708   1.404       .  A
C3707      H3716   1.078       .  S
C3708      C3709   1.398       .  A
C3708      H3717   1.083       .  S
C3709      C3710   1.407       .  A
C3710      H3718   1.085       .  S
C3719      C3720   1.399       .  A
C3719      C3724   1.400       .  A
C3720      C3721   1.405       .  A
C3720      H3733   1.084       .  S
C3721      C3722   1.419       .  A
C3721      H3734   1.078       .  S
C3722      C3728   1.437       .  A
C3722      C3723   1.422       .  A
C3723      C3725   1.399       .  A
C3723      C3724   1.406       .  A
C3724      H3735   1.085       .  S
C3725      C3726   1.390       .  A
C3725      H3736   1.084       .  S
C3726      C3727   1.398       .  A
C3727      C3728   1.426       .  A
C3727      C3732   1.410       .  A
C3728      C3729   1.415       .  A
C3729      C3730   1.401       .  A
C3729      H3738   1.077       .  S
C3730      C3731   1.402       .  A
C3730      H3739   1.084       .  S
C3731      C3732   1.398       .  A
C3741      C3742   1.401       .  A
C3741      C3746   1.402       .  A
C3742      C3743   1.399       .  A
C3742      H3755   1.084       .  S
C3743      C3744   1.414       .  A
C3743      H3756   1.078       .  S
C3744      C3750   1.437       .  A
C3744      C3745   1.425       .  A
C3745      C3747   1.400       .  A
C3745      C3746   1.414       .  A
C3746      H3757   1.084       .  S
C3747      C3748   1.394       .  A
C3747      H3758   1.084       .  S
C3748      C3749   1.402       .  A
C3748      H3759   1.084       .  S
C3749      C3750   1.421       .  A
C3749      C3754   1.409       .  A
C3750      C3751   1.419       .  A
C3751      C3752   1.404       .  A
C3751      H3760   1.078       .  S
C3752      C3753   1.399       .  A
C3752      H3761   1.083       .  S
C3753      C3754   1.406       .  A
C3754      H3762   1.085       .  S
C3763      C3764   1.401       .  A
C3763      C3768   1.402       .  A
C3764      C3765   1.396       .  A
C3764      H3777   1.083       .  S
C3765      C3766   1.414       .  A
C3765      H3778   1.077       .  S
C3766      C3772   1.430       .  A
C3766      C3767   1.423       .  A
C3767      C3769   1.400       .  A
C3767      C3768   1.407       .  A
C3768      H3779   1.085       .  S
C3769      C3770   1.390       .  A
C3770      C3771   1.399       .  A
C3770      H3781   1.084       .  S
C3771      C3772   1.423       .  A
C3771      C3776   1.404       .  A
C3772      C3773   1.417       .  A
C3773      C3774   1.397       .  A
C3773      H3782   1.077       .  S
C3774      C3775   1.397       .  A
C3774      H3783   1.084       .  S
C3775      C3776   1.398       .  A
C3776      H3784   1.085       .  S
C3785      C3786   1.393       .  A
C3785      C3790   1.397       .  A
C3786      C3787   1.392       .  A
C3786      H3799   1.084       .  S
C3787      C3788   1.416       .  A
C3787      H3800   1.077       .  S
C3788      C3794   1.426       .  A
C3788      C3789   1.423       .  A
C3789      C3791   1.399       .  A
C3789      C3790   1.403       .  A
C3790      H3801   1.085       .  S
C3791      C3792   1.390       .  A
C3791      H3802   1.084       .  S
C3792      C3793   1.400       .  A
C3792      H3803   1.084       .  S
C3793      C3794   1.423       .  A
C3793      C3798   1.405       .  A
C3794      C3795   1.413       .  A
C3795      C3796   1.390       .  A
C3795      H3804   1.077       .  S
C3796      C3797   1.399       .  A
C3796      H3805   1.084       .  S
C3797      C3798   1.400       .  A
C3798      H3806   1.085       .  S
C3807      C3808   1.395       .  A
C3807      C3812   1.396       .  A
C3808      C3809   1.392       .  A
C3808      H3821   1.083       .  S
C3809      C3810   1.415       .  A
C3809      H3822   1.077       .  S
C3810      C3816   1.425       .  A
C3810      C3811   1.423       .  A
C3811      C3813   1.399       .  A
C3811      C3812   1.403       .  A
C3812      H3823   1.085       .  S
C3813      C3814   1.390       .  A
C3813      H3824   1.084       .  S
C3814      C3815   1.400       .  A
C3814      H3825   1.084       .  S
C3815      C3816   1.422       .  A
C3815      C3820   1.403       .  A
C3816      C3817   1.413       .  A
C3817      C3818   1.392       .  A
C3817      H3826   1.077       .  S
C3818      C3819   1.399       .  A
C3818      H3827   1.083       .  S
C3819      C3820   1.402       .  A
C3820      H3828   1.084       .  S
C3829      C3830   1.398       .  A
C3829      C3834   1.404       .  A
C3830      C3831   1.399       .  A
C3830      H3843   1.083       .  S
C3831      C3832   1.419       .  A
C3831      H3844   1.077       .  S
C3832      C3838   1.427       .  A
C3832      C3833   1.418       .  A
C3833      C3835   1.400       .  A
C3833      C3834   1.399       .  A
C3835      C3836   1.389       .  A
C3836      C3837   1.398       .  A
C3836      H3847   1.084       .  S
C3837      C3838   1.425       .  A
C3837      C3842   1.407       .  A
C3838      C3839   1.410       .  A
C3839      C3840   1.392       .  A
C3839      H3848   1.077       .  S
C3840      C3841   1.402       .  A
C3840      H3849   1.084       .  S
C3841      C3842   1.399       .  A
C3842      H3850   1.085       .  S
C3851      C3852   1.396       .  A
C3851      C3856   1.403       .  A
C3852      C3853   1.398       .  A
C3852      H3865   1.083       .  S
C3853      C3854   1.418       .  A
C3853      H3866   1.077       .  S
C3854      C3860   1.426       .  A
C3854      C3855   1.419       .  A
C3855      C3857   1.400       .  A
C3855      C3856   1.400       .  A
C3856      H3867   1.085       .  S
C3857      C3858   1.389       .  A
C3857      H3868   1.084       .  S
C3858      C3859   1.398       .  A
C3858      H3869   1.084       .  S
C3859      C3860   1.425       .  A
C3859      C3864   1.405       .  A
C3860      C3861   1.411       .  A
C3861      C3862   1.391       .  A
C3861      H3870   1.078       .  S
C3862      C3863   1.400       .  A
C3863      C3864   1.398       .  A
C3864      H3872   1.085       .  S
C3873      C3874   1.400       .  A
C3873      C3878   1.397       .  A
C3874      C3875   1.388       .  A
C3874      H3887   1.084       .  S
C3875      C3876   1.410       .  A
C3875      H3888   1.077       .  S
C3876      C3882   1.424       .  A
C3876      C3877   1.425       .  A
C3877      C3879   1.398       .  A
C3877      C3878   1.404       .  A
C3878      H3889   1.085       .  S
C3879      C3880   1.388       .  A
C3879      H3890   1.084       .  S
C3880      C3881   1.400       .  A
C3880      H3891   1.084       .  S
C3881      C3882   1.419       .  A
C3881      C3886   1.398       .  A
C3882      C3883   1.418       .  A
C3883      C3884   1.396       .  A
C3883      H3892   1.077       .  S
C3884      C3885   1.396       .  A
C3884      H3893   1.083       .  S
C3885      C3886   1.403       .  A
C3886      H3894   1.085       .  S
C3895      C3896   1.395       .  A
C3895      C3900   1.399       .  A
C3896      C3897   1.392       .  A
C3896      H3909   1.084       .  S
C3897      C3898   1.415       .  A
C3897      H3910   1.077       .  S
C3898      C3904   1.426       .  A
C3898      C3899   1.423       .  A
C3899      C3901   1.399       .  A
C3899      C3900   1.404       .  A
C3900      H3911   1.085       .  S
C3901      C3902   1.390       .  A
C3901      H3912   1.084       .  S
C3902      C3903   1.400       .  A
C3902      H3913   1.084       .  S
C3903      C3904   1.422       .  A
C3905      C3906   1.395   1_545  A
C3905      H3914   1.077       .  S
C3906      C3907   1.400       .  A
C3906      H3915   1.083       .  S
C3907      C3908   1.403       .  A
C3908      H3916   1.084       .  S
C3917      C3918   1.398       .  A
C3917      C3922   1.397       .  A
C3918      C3919   1.395       .  A
C3918      H3931   1.083       .  S
C3919      C3920   1.416       .  A
C3919      H3932   1.077       .  S
C3920      C3926   1.429       .  A
C3920      C3921   1.423       .  A
C3921      C3922   1.403       .  A
C3922      H3933   1.085       .  S
C3923      C3924   1.389       .  A
C3923      H3934   1.084       .  S
C3924      C3925   1.399       .  A
C3924      H3935   1.084       .  S
C3925      C3930   1.405       .  A
C3926      C3927   1.415   1_655  A
C3927      H3936   1.077       .  S
C3928      C3929   1.400       .  A
C3928      H3937   1.083       .  S
C3929      C3930   1.400       .  A
C3930      H3938   1.085       .  S
C3939      C3940   1.395       .  A
C3939      C3944   1.399       .  A
C3940      C3941   1.393       .  A
C3940      H3953   1.084       .  S
C3941      C3942   1.416       .  A
C3941      H3954   1.077       .  S
C3942      C3948   1.427       .  A
C3942      C3943   1.422       .  A
C3943      C3945   1.399       .  A
C3943      C3944   1.403       .  A
C3944      H3955   1.084       .  S
C3945      C3946   1.391       .  A
C3945      H3956   1.084       .  S
C3946      C3947   1.400       .  A
C3946      H3957   1.084       .  S
C3947      C3948   1.423       .  A
C3947      C3952   1.407       .  A
C3948      C3949   1.413       .  A
C3949      C3950   1.392       .  A
C3949      H3958   1.077       .  S
C3950      C3951   1.400       .  A
C3950      H3959   1.083       .  S
C3951      C3952   1.403       .  A
C3952      H3960   1.084       .  S
