geometry optimzed in LAMMPS
_audit_creation_date              2020-11-30 
_audit_creation_method            'lammps2cif' 
_symmetry_space_group_name_H-M    'P1' 
_symmetry_Int_Tables_number       1 
_symmetry_cell_setting            triclinic 
loop_ 
_symmetry_equiv_pos_as_xyz 
  x,y,z 
_cell_length_a                    87.36077688268922 
_cell_length_b                    50.44805549299059 
_cell_length_c                    26.65882020648505 
_cell_angle_alpha                 89.86729022148269 
_cell_angle_beta                  89.95881167560462 
_cell_angle_gamma                 90.36895555323915 
loop_ 
_atom_site_label 
_atom_site_type_symbol 
_atom_site_fract_x 
_atom_site_fract_y 
_atom_site_fract_z 
_atom_site_charge 
O1          O  0.70178869  0.57221092  0.23395501    -0.80880
O2          O  0.69427821  0.45198341  0.18611810    -0.65570
O3          O  0.68582040  0.52542371  0.20752735    -1.12180
C4          C  0.68918397  0.49947711  0.37957548     1.06000
O5          O  0.67605018  0.44332849  0.24055412    -0.78780
O6          O  0.66280339  0.47586527  0.30658035    -0.66360
Ni7        Ni  0.69636085  0.55305291  0.17321532     1.34870
C8          C  0.65774284  0.49893132  0.29838624     0.84740
O9          O  0.68802833  0.49282795  0.12322710    -0.79320
O10         O  0.69164135  0.53667565  0.10999110    -0.89600
C11         C  0.68551493  0.43540650  0.20797556     0.84310
O12         O  0.71613283  0.53734823  0.16995244    -0.67800
O13         O  0.68797501  0.47566296  0.36390330    -0.87090
C14         C  0.72070489  0.51350748  0.17182679     0.85140
C15         C  0.68934166  0.51302937  0.09437014     1.06710
H16         H  0.70369990  0.48548293  0.27311533     0.38510
O17         O  0.69295027  0.48753971  0.26564884    -1.09740
O18         O  0.66606638  0.51817008  0.28387592    -0.66400
Ni19       Ni  0.68785194  0.52330542  0.27868212     1.26350
O20         O  0.71211423  0.49424710  0.18507400    -0.66620
O21         O  0.68964819  0.51958512  0.35029914    -0.78920
C22         C  0.69272700  0.57740033  0.27008699     0.84530
O23         O  0.68375117  0.55992142  0.28774095    -0.66090
Ni24       Ni  0.68246050  0.46023397  0.30110961     1.27450
Ni25       Ni  0.69046656  0.48927883  0.19441597     1.26060
H26         H  0.67514470  0.52780163  0.19938325     0.39070
O27         O  0.70126713  0.57262247  0.73461057    -0.80880
O28         O  0.69333863  0.45133797  0.68362137    -0.65570
O29         O  0.68601952  0.52466759  0.71018289    -1.12180
C30         C  0.69395317  0.49771048  0.88032886     1.06000
O31         O  0.67814665  0.44045512  0.74614198    -0.78780
O32         O  0.66643609  0.47279065  0.81424078    -0.66360
Ni33       Ni  0.69711417  0.55167222  0.67510340     1.34870
C34         C  0.66054954  0.49544762  0.80854984     0.84740
O35         O  0.68503176  0.49271559  0.62525310    -0.79320
O36         O  0.69367621  0.53424054  0.61203846    -0.89600
C37         C  0.68633279  0.43386164  0.70922743     0.84310
O38         O  0.71692198  0.53583424  0.67830216    -0.67800
O39         O  0.69304614  0.47386454  0.86491519    -0.87090
C40         C  0.72047106  0.51180574  0.67047996     0.85140
C41         C  0.68889389  0.51180624  0.59617475     1.06710
H42         H  0.70585473  0.48468122  0.76821901     0.38510
O43         O  0.69488285  0.48618100  0.76482033    -1.09740
O44         O  0.66807547  0.51517267  0.79149538    -0.66400
Ni45       Ni  0.68960699  0.52170195  0.78060478     1.26350
O46         O  0.71113595  0.49268391  0.67695860    -0.66620
O47         O  0.69308057  0.51781675  0.85131133    -0.78920
C48         C  0.69252858  0.57650475  0.77213855     0.84530
O49         O  0.68495416  0.55781830  0.79214745    -0.66090
Ni50       Ni  0.68610631  0.45818886  0.80373237     1.27450
Ni51       Ni  0.68992117  0.48843758  0.69481039     1.26060
H52         H  0.67527299  0.52790255  0.70439784     0.39070
O53         O  0.54871311  0.57150154  0.40008553    -0.80880
O54         O  0.55799057  0.45185329  0.45354457    -0.65570
O55         O  0.56519329  0.52571359  0.42677460    -1.12180
C56         C  0.56286112  0.49649374  0.25685980     1.06000
O57         O  0.57678177  0.44509507  0.40176881    -0.78780
O58         O  0.59018343  0.47735359  0.33782885    -0.66360
Ni59       Ni  0.55430927  0.55295197  0.46080785     1.34870
C60         C  0.59406631  0.50143515  0.34102493     0.84740
O61         O  0.56358421  0.49407874  0.51384559    -0.79320
O62         O  0.55909956  0.53762376  0.52493049    -0.89600
C63         C  0.56678409  0.43576859  0.43119276     0.84310
O64         O  0.53471213  0.53609885  0.46295691    -0.67800
O65         O  0.56633534  0.47362638  0.27376597    -0.87090
C66         C  0.53042394  0.51199475  0.46153707     0.85140
C67         C  0.56183272  0.51442164  0.54167191     1.06710
H68         H  0.54843233  0.48221722  0.36361697     0.38510
O69         O  0.55902192  0.48607782  0.37129839    -1.09740
O70         O  0.58467764  0.52011569  0.34825236    -0.66400
Ni71       Ni  0.56274940  0.52217944  0.35542679     1.26350
O72         O  0.53940648  0.49296320  0.45110430    -0.66620
O73         O  0.56049715  0.51682539  0.28435579    -0.78920
C74         C  0.55720151  0.57651168  0.36237181     0.84530
O75         O  0.56556936  0.55893002  0.34289361    -0.66090
Ni76       Ni  0.57101505  0.45975526  0.33886745     1.27450
Ni77       Ni  0.56123263  0.48933894  0.44273575     1.26060
H78         H  0.57587475  0.52899196  0.43393687     0.39070
O79         O  0.55174359  0.57387328  0.90698431    -0.80880
O80         O  0.55842471  0.45332125  0.94835712    -0.65570
O81         O  0.56763478  0.52690731  0.93095496    -1.12180
C82         C  0.56391676  0.50592753  0.75715653     1.06000
O83         O  0.57500349  0.44322886  0.88947040    -0.78780
O84         O  0.58986031  0.47832616  0.83286121    -0.66360
Ni85       Ni  0.55693454  0.55366292  0.96648590     1.34870
C86         C  0.59543426  0.50102415  0.84240407     0.84740
O87         O  0.56580400  0.49281990  0.01335670    -0.79320
O88         O  0.56120643  0.53615602  0.02883203    -0.89600
C89         C  0.56535803  0.43613626  0.92230220     0.84310
O90         O  0.53711620  0.53777864  0.96731571    -0.67800
O91         O  0.56547414  0.48181040  0.77025360    -0.87090
C92         C  0.53259509  0.51379226  0.96655496     0.85140
C93         C  0.56403124  0.51249709  0.04307687     1.06710
H94         H  0.54905964  0.48868294  0.86345395     0.38510
O95         O  0.55987950  0.49031539  0.87038164    -1.09740
O96         O  0.58724899  0.52081355  0.85387246    -0.66400
Ni97       Ni  0.56549497  0.52647531  0.85980006     1.26350
O98         O  0.54119340  0.49484941  0.95330785    -0.66620
O99         O  0.56341030  0.52513426  0.78806199    -0.78920
C100        C  0.56063715  0.57994747  0.87085456     0.84530
O101        O  0.56998914  0.56317056  0.85369563    -0.66090
Ni102      Ni  0.56981837  0.46371405  0.83161310     1.27450
Ni103      Ni  0.56279235  0.49052014  0.94191252     1.26060
H104        H  0.57831795  0.52930231  0.93926686     0.39070
O105        O  0.70114965  0.68342908  0.40973269    -0.80880
O106        O  0.69484058  0.80544432  0.45265249    -0.65570
O107        O  0.68609974  0.73172897  0.43311451    -1.12180
C108        C  0.68878414  0.75571393  0.26068946     1.06000
O109        O  0.67721100  0.81504641  0.39722123    -0.78780
O110        O  0.66248427  0.78071154  0.33939648    -0.66360
Ni111      Ni  0.69725048  0.70516491  0.46854199     1.34870
C112        C  0.65771100  0.75718924  0.34529572     0.84740
O113        O  0.68708591  0.76559726  0.51531008    -0.79320
O114        O  0.69413628  0.72360656  0.53121799    -0.89600
C115        C  0.68712098  0.82244843  0.42866441     0.84310
O116        O  0.71723967  0.72042890  0.46305605    -0.67800
O117        O  0.68643418  0.77931740  0.27548217    -0.87090
C118        C  0.72142366  0.74449473  0.46632829     0.85140
C119        C  0.69013263  0.74676830  0.54539887     1.06710
H120        H  0.70425294  0.77199314  0.36667515     0.38510
O121        O  0.69349962  0.76949835  0.37393546    -1.09740
O122        O  0.66646622  0.73779084  0.35488482    -0.66400
Ni123      Ni  0.68836112  0.73330099  0.36191338     1.26350
O124        O  0.71238655  0.76386038  0.45870807    -0.66620
O125        O  0.69059178  0.73614690  0.29048474    -0.78920
C126        C  0.69269748  0.67877965  0.37176536     0.84530
O127        O  0.68416030  0.69659941  0.35365579    -0.66090
Ni128      Ni  0.68238534  0.79609036  0.33792835     1.27450
Ni129      Ni  0.69067816  0.76824870  0.44509976     1.26060
H130        H  0.67542864  0.72891096  0.44120905     0.39070
O131        O  0.69897907  0.68360262  0.90594726    -0.80880
O132        O  0.69399941  0.80387514  0.95520769    -0.65570
O133        O  0.68368282  0.73112265  0.93115684    -1.12180
C134        C  0.68804844  0.75724639  0.76045022     1.06000
O135        O  0.67674492  0.81548664  0.89938541    -0.78780
O136        O  0.66185001  0.78266265  0.83820842    -0.66360
Ni137      Ni  0.69337592  0.70281805  0.96595905     1.34870
C138        C  0.65659144  0.75936144  0.84280162     0.84740
O139        O  0.68605635  0.76299644  0.01614473    -0.79320
O140        O  0.68869977  0.71909594  0.02895613    -0.89600
C141        C  0.68634309  0.82167522  0.93292232     0.84310
O142        O  0.71350739  0.71731255  0.97080427    -0.67800
O143        O  0.68618064  0.78090337  0.77592792    -0.87090
C144        C  0.71857512  0.74094953  0.96965604     0.85140
C145        C  0.68706088  0.74277335  0.04489491     1.06710
H146        H  0.70278673  0.77116604  0.86751043     0.38510
O147        O  0.69197837  0.76922911  0.87439356    -1.09740
O148        O  0.66476874  0.73925263  0.85244068    -0.66400
Ni149      Ni  0.68643332  0.73348912  0.86033978     1.26350
O150        O  0.71053886  0.76070067  0.95624594    -0.66620
O151        O  0.68901312  0.73716519  0.78933519    -0.78920
C152        C  0.69090278  0.67934999  0.86701309     0.84530
O153        O  0.68201621  0.69698250  0.85007249    -0.66090
Ni154      Ni  0.68194136  0.79709489  0.83916120     1.27450
Ni155      Ni  0.68908973  0.76695822  0.94542036     1.26060
H156        H  0.67288306  0.72922779  0.93822924     0.39070
O157        O  0.54908066  0.68638829  0.23352290    -0.80880
O158        O  0.55535267  0.80517991  0.18573981    -0.65570
O159        O  0.56561156  0.73263304  0.21054591    -1.12180
C160        C  0.56160120  0.75976879  0.38035374     1.06000
O161        O  0.57457875  0.81397765  0.23606829    -0.78780
O162        O  0.58938740  0.78167790  0.29887910    -0.66360
Ni163      Ni  0.55673552  0.70419337  0.17439958     1.34870
C164        C  0.59361560  0.75772043  0.29882145     0.84740
O165        O  0.56159924  0.76367957  0.12370902    -0.79320
O166        O  0.56390802  0.71962461  0.11305859    -0.89600
C167        C  0.56422717  0.82201935  0.20653053     0.84310
O168        O  0.53700692  0.71906918  0.16187028    -0.67800
O169        O  0.56554665  0.78258878  0.36368743    -0.87090
C170        C  0.53083242  0.74136887  0.16988061     0.85140
C171        C  0.56316590  0.74319366  0.09586558     1.06710
H172        H  0.54758036  0.77385018  0.27517195     0.38510
O173        O  0.55818068  0.77079078  0.26671185    -1.09740
O174        O  0.58441501  0.73843570  0.29189645    -0.66400
Ni175      Ni  0.56251779  0.73493862  0.28149161     1.26350
O176        O  0.53817843  0.76070428  0.18966052    -0.66620
O177        O  0.55940561  0.73952858  0.35224920    -0.78920
C178        C  0.55703629  0.68067366  0.27193080     0.84530
O179        O  0.56553456  0.69802668  0.29243349    -0.66090
Ni180      Ni  0.56973999  0.79769246  0.29891090     1.27450
Ni181      Ni  0.55991182  0.76808013  0.19529889     1.26060
H182        H  0.57646631  0.73155743  0.20422668     0.39070
O183        O  0.54904025  0.68690543  0.73835433    -0.80880
O184        O  0.55546687  0.80641704  0.68514582    -0.65570
O185        O  0.56429611  0.73365235  0.70912391    -1.12180
C186        C  0.56226431  0.76070361  0.88062406     1.06000
O187        O  0.57328213  0.81691753  0.73985847    -0.78780
O188        O  0.58749044  0.78477077  0.80498068    -0.66360
Ni189      Ni  0.55347662  0.70588029  0.67664724     1.34870
C190        C  0.59275355  0.76184606  0.79659738     0.84740
O191        O  0.56245746  0.76559951  0.62422065    -0.79320
O192        O  0.55737486  0.72219877  0.61251609    -0.89600
C193        C  0.56341040  0.82373687  0.70776493     0.84310
O194        O  0.53354393  0.72100043  0.67683922    -0.67800
O195        O  0.56245921  0.78443962  0.86430095    -0.87090
C196        C  0.52904391  0.74488372  0.67555584     0.85140
C197        C  0.56071794  0.74534984  0.59599792     1.06710
H198        H  0.54636527  0.77353471  0.77395239     0.38510
O199        O  0.55713138  0.77184181  0.76634691    -1.09740
O200        O  0.58453172  0.74231100  0.78320059    -0.66400
Ni201      Ni  0.56282572  0.73632535  0.78027159     1.26350
O202        O  0.53786106  0.76444195  0.68494973    -0.66620
O203        O  0.56190524  0.74040738  0.85192993    -0.78920
C204        C  0.55865603  0.68207620  0.77305383     0.84530
O205        O  0.56746697  0.69999025  0.78986575    -0.66090
Ni206      Ni  0.56751393  0.79972000  0.80084625     1.27450
Ni207      Ni  0.55957352  0.76956497  0.69496967     1.26060
H208        H  0.57488592  0.73112285  0.70011265     0.39070
O209        O  0.70071674  0.07187157  0.48646325    -0.80880
O210        O  0.69300985  0.95156808  0.43744788    -0.65570
O211        O  0.68508788  0.02495461  0.46061162    -1.12180
C212        C  0.69010058  0.99792510  0.63239996     1.06000
O213        O  0.67562314  0.94323817  0.49423985    -0.78780
O214        O  0.66322247  0.97499607  0.56349327    -0.66360
Ni215      Ni  0.69575657  0.05241954  0.42609757     1.34870
C216        C  0.65772779  0.99771082  0.55436147     0.84740
O217        O  0.68597858  0.99253121  0.37594046    -0.79320
O218        O  0.69150381  0.03584355  0.36277603    -0.89600
C219        C  0.68525339  0.93486565  0.46275266     0.84310
O220        O  0.71557985  0.03691168  0.42549466    -0.67800
O221        O  0.68945862  0.97413572  0.61643230    -0.87090
C222        C  0.71981424  0.01289708  0.42380018     0.85140
C223        C  0.68801894  0.01262665  0.34735358     1.06710
H224        H  0.70360203  0.98504328  0.52362729     0.38510
O225        O  0.69275262  0.98685591  0.51760412    -1.09740
O226        O  0.66575457  0.01675748  0.53750253    -0.66400
Ni227      Ni  0.68747587  0.02236571  0.53181457     1.26350
O228        O  0.71093564  0.99343676  0.43353499    -0.66620
O229        O  0.68940296  0.01822659  0.60357177    -0.78920
C230        C  0.69182354  0.07654269  0.52318863     0.84530
O231        O  0.68326112  0.05875920  0.54189455    -0.66090
Ni232      Ni  0.68281917  0.95935829  0.55431160     1.27450
Ni233      Ni  0.68938421  0.98878081  0.44653133     1.26060
H234        H  0.67439304  0.02764277  0.45305870     0.39070
O235        O  0.70126993  0.07167823  0.98624771    -0.80880
O236        O  0.69369416  0.95098691  0.94141712    -0.65570
O237        O  0.68534977  0.02472204  0.96199013    -1.12180
C238        C  0.69131259  0.99981205  0.13389181     1.06000
O239        O  0.67618127  0.94375033  0.99852702    -0.78780
O240        O  0.66413557  0.97542611  0.06800437    -0.66360
Ni241      Ni  0.69552267  0.05225364  0.92643726     1.34870
C242        C  0.65844504  0.99797276  0.05898070     0.84740
O243        O  0.68719004  0.99181752  0.87761169    -0.79320
O244        O  0.69032614  0.03565261  0.86408330    -0.89600
C245        C  0.68525660  0.93477808  0.96583394     0.84310
O246        O  0.71538849  0.03677371  0.92227229    -0.67800
O247        O  0.69067985  0.97573787  0.11929739    -0.87090
C248        C  0.72021765  0.01310558  0.92480308     0.85140
C249        C  0.68804850  0.01201818  0.84845718     1.06710
H250        H  0.70411233  0.98596212  0.02643464     0.38510
O251        O  0.69326104  0.98749030  0.02016337    -1.09740
O252        O  0.66617826  0.01708537  0.04050774    -0.66400
Ni253      Ni  0.68791197  0.02307592  0.03309420     1.26350
O254        O  0.71169308  0.99372388  0.93806192    -0.66620
O255        O  0.69028430  0.01982096  0.10454489    -0.78920
C256        C  0.69245334  0.07709215  0.02286467     0.84530
O257        O  0.68369444  0.05967851  0.04194328    -0.66090
Ni258      Ni  0.68375714  0.96017609  0.05792849     1.27450
Ni259      Ni  0.69008695  0.98856796  0.94898802     1.26060
H260        H  0.67459417  0.02689083  0.95474214     0.39070
O261        O  0.54933439  0.07221975  0.15005752    -0.80880
O262        O  0.55585790  0.95238160  0.20010599    -0.65570
O263        O  0.56511131  0.02572896  0.17638959    -1.12180
C264        C  0.56232043  0.99894116  0.00558478     1.06000
O265        O  0.57440854  0.94352632  0.14729641    -0.78780
O266        O  0.58864540  0.97613089  0.08417779    -0.66360
Ni267      Ni  0.55521786  0.05375039  0.21075947     1.34870
C268        C  0.59343450  0.99967876  0.08957069     0.84740
O269        O  0.56217458  0.99387182  0.26210741    -0.79320
O270        O  0.56061235  0.03803580  0.27388570    -0.89600
C271        C  0.56466522  0.93569718  0.17928552     0.84310
O272        O  0.53532122  0.03818907  0.21676424    -0.67800
O273        O  0.56431472  0.97538596  0.02166085    -0.87090
C274        C  0.53029812  0.01460560  0.21282484     0.85140
C275        C  0.56216361  0.01438079  0.29034282     1.06710
H276        H  0.54727412  0.98476839  0.11127774     0.38510
O277        O  0.55795648  0.98738279  0.11933434    -1.09740
O278        O  0.58474110  0.01901710  0.09951920    -0.66400
Ni279      Ni  0.56291592  0.02330880  0.10521376     1.26350
O280        O  0.53837447  0.99513203  0.19842224    -0.66620
O281        O  0.56098331  0.01918996  0.03396381    -0.78920
C282        C  0.55835379  0.07764454  0.11386076     0.84530
O283        O  0.56681540  0.06002449  0.09485782    -0.66090
Ni284      Ni  0.56889002  0.96022951  0.08566440     1.27450
Ni285      Ni  0.56003561  0.98971589  0.19073518     1.26060
H286        H  0.57585346  0.02783395  0.18411550     0.39070
O287        O  0.54903711  0.07250528  0.64876813    -0.80880
O288        O  0.55591084  0.95247085  0.70024833    -0.65570
O289        O  0.56415019  0.02627845  0.67867646    -1.12180
C290        C  0.56164001  0.00002134  0.50618489     1.06000
O291        O  0.57403221  0.94580565  0.64610638    -0.78780
O292        O  0.58734880  0.97650441  0.57856780    -0.66360
Ni293      Ni  0.55257549  0.05320576  0.71032563     1.34870
C294        C  0.59297400  0.99866124  0.59117579     0.84740
O295        O  0.56202236  0.99374939  0.76284064    -0.79320
O296        O  0.55551146  0.03654724  0.77454282    -0.89600
C297        C  0.56422039  0.93641646  0.67589484     0.84310
O298        O  0.53275714  0.03720922  0.70567407    -0.67800
O299        O  0.56172696  0.97613568  0.52201333    -0.87090
C300        C  0.52880155  0.01300514  0.70871654     0.85140
C301        C  0.55895473  0.01353769  0.79105569     1.06710
H302        H  0.54648856  0.98678456  0.61245151     0.38510
O303        O  0.55725447  0.98847015  0.62020117    -1.09740
O304        O  0.58493362  0.01798009  0.60612830    -0.66400
Ni305      Ni  0.56315248  0.02397977  0.60720980     1.26350
O306        O  0.53797970  0.99389810  0.70189298    -0.66620
O307        O  0.56245881  0.02018703  0.53516474    -0.78920
C308        C  0.55902288  0.07805552  0.61545666     0.84530
O309        O  0.56790498  0.06043399  0.59853063    -0.66090
Ni310      Ni  0.56749703  0.96122461  0.58490475     1.27450
Ni311      Ni  0.55963032  0.98997139  0.69181146     1.26060
H312        H  0.57465641  0.02933539  0.68852279     0.39070
O313        O  0.70146854  0.18594299  0.15483366    -0.80880
O314        O  0.69566642  0.30511639  0.20357683    -0.65570
O315        O  0.68548238  0.23219877  0.18071022    -1.12180
C316        C  0.68638175  0.25934238  0.01012301     1.06000
O317        O  0.67600027  0.31378314  0.15551793    -0.78780
O318        O  0.66047275  0.28067776  0.09770155    -0.66360
Ni319      Ni  0.69500458  0.20390062  0.21549000     1.34870
C320        C  0.65635324  0.25660648  0.09872873     0.84740
O321        O  0.68995906  0.26370297  0.26653293    -0.79320
O322        O  0.68916085  0.21936016  0.27843440    -0.89600
C323        C  0.68651950  0.32184015  0.18446479     0.84310
O324        O  0.71484337  0.21926138  0.22423364    -0.67800
O325        O  0.68302485  0.28223405  0.02712439    -0.87090
C326        C  0.72045417  0.24226878  0.21730483     0.85140
C327        C  0.68905231  0.24318090  0.29476375     1.06710
H328        H  0.70261838  0.27403232  0.11335780     0.38510
O329        O  0.69212811  0.27069134  0.12315616    -1.09740
O330        O  0.66565611  0.23753759  0.10266701    -0.66400
Ni331      Ni  0.68756187  0.23465505  0.10931434     1.26350
O332        O  0.71290603  0.26155651  0.19885583    -0.66620
O333        O  0.68941647  0.23929886  0.03793707    -0.78920
C334        C  0.69276583  0.18027613  0.11798432     0.84530
O335        O  0.68411549  0.19781526  0.09935788    -0.66090
Ni336      Ni  0.67997723  0.29729137  0.09249321     1.27450
Ni337      Ni  0.69111452  0.26795119  0.19477689     1.26060
H338        H  0.67472042  0.23059520  0.18859404     0.39070
O339        O  0.70077368  0.18330878  0.65765525    -0.80880
O340        O  0.69254394  0.30493179  0.70326689    -0.65570
O341        O  0.68554754  0.23085611  0.68215336    -1.12180
C342        C  0.69142028  0.25598663  0.50963654     1.06000
O343        O  0.67574715  0.31270472  0.64383599    -0.78780
O344        O  0.66381575  0.27967414  0.57662342    -0.66360
Ni345      Ni  0.69672280  0.20436363  0.71686148     1.34870
C346        C  0.65822474  0.25729713  0.58853393     0.84740
O347        O  0.68565644  0.26399209  0.76583848    -0.79320
O348        O  0.69346662  0.22213411  0.77962800    -0.89600
C349        C  0.68422400  0.32108050  0.67894638     0.84310
O350        O  0.71642255  0.22056119  0.71173931    -0.67800
O351        O  0.69057283  0.28001988  0.52408975    -0.87090
C352        C  0.72035994  0.24469423  0.71688868     0.85140
C353        C  0.68914641  0.24480253  0.79507420     1.06710
H354        H  0.70412635  0.27073904  0.61870206     0.38510
O355        O  0.69324268  0.26879520  0.62420699    -1.09740
O356        O  0.66620222  0.23835244  0.60551664    -0.66400
Ni357      Ni  0.68797662  0.23297622  0.61109199     1.26350
O358        O  0.71115402  0.26386295  0.70980330    -0.66620
O359        O  0.69022090  0.23613521  0.53931399    -0.78920
C360        C  0.69248238  0.17890445  0.61923874     0.84530
O361        O  0.68368872  0.19656930  0.60200534    -0.66090
Ni362      Ni  0.68352342  0.29559567  0.58535795     1.27450
Ni363      Ni  0.68952060  0.26738164  0.69517417     1.26060
H364        H  0.67489797  0.22757128  0.68993490     0.39070
O365        O  0.55080612  0.18638032  0.48680933    -0.80880
O366        O  0.55805537  0.30511749  0.43297757    -0.65570
O367        O  0.56676204  0.23247164  0.45876287    -1.12180
C368        C  0.56074895  0.25971774  0.62913035     1.06000
O369        O  0.57504238  0.31570275  0.49071406    -0.78780
O370        O  0.58774126  0.28419286  0.56035049    -0.66360
Ni371      Ni  0.55645637  0.20440718  0.42546526     1.34870
C372        C  0.59349845  0.26153715  0.55313667     0.84740
O373        O  0.56509848  0.26379025  0.37300360    -0.79320
O374        O  0.56134508  0.21992311  0.36165751    -0.89600
C375        C  0.56600736  0.32238780  0.45588117     0.84310
O376        O  0.53653686  0.21953561  0.42092540    -0.67800
O377        O  0.56129713  0.28353007  0.61284328    -0.87090
C378        C  0.53197028  0.24338215  0.41954463     0.85140
C379        C  0.56343046  0.24340879  0.34493100     1.06710
H380        H  0.54773316  0.27198312  0.52028287     0.38510
O381        O  0.55861301  0.27061372  0.51437297    -1.09740
O382        O  0.58587145  0.24192575  0.53641330    -0.66400
Ni383      Ni  0.56422655  0.23531777  0.52954800     1.26350
O384        O  0.54041206  0.26299173  0.43158161    -0.66620
O385        O  0.56190146  0.23949951  0.60068066    -0.78920
C386        C  0.55960363  0.18151359  0.52362796     0.84530
O387        O  0.56870593  0.19900325  0.54040500    -0.66090
Ni388      Ni  0.56788484  0.29878026  0.55063800     1.27450
Ni389      Ni  0.56196048  0.26820967  0.44354573     1.26060
H390        H  0.57750820  0.23017485  0.45147691     0.39070
O391        O  0.54931196  0.18662400  0.98587544    -0.80880
O392        O  0.55613947  0.30700982  0.93587345    -0.65570
O393        O  0.56481040  0.23378863  0.95924841    -1.12180
C394        C  0.56170117  0.26131804  0.13040371     1.06000
O395        O  0.57458709  0.31510698  0.98910970    -0.78780
O396        O  0.58774014  0.28359991  0.05826755    -0.66360
Ni397      Ni  0.55475690  0.20575876  0.92511615     1.34870
C398        C  0.59290779  0.26053669  0.05054779     0.84740
O399        O  0.56239700  0.26593477  0.87409771    -0.79320
O400        O  0.55961814  0.22206422  0.86167180    -0.89600
C401        C  0.56456707  0.32361312  0.95899071     0.84310
O402        O  0.53480520  0.22077316  0.92146417    -0.67800
O403        O  0.56212412  0.28501961  0.11386198    -0.87090
C404        C  0.52993838  0.24441686  0.92347609     0.85140
C405        C  0.56168433  0.24571751  0.84543708     1.06710
H406        H  0.54690470  0.27390671  0.02396748     0.38510
O407        O  0.55764103  0.27187866  0.01632553    -1.09740
O408        O  0.58468588  0.24142037  0.03501827    -0.66400
Ni409      Ni  0.56286250  0.23633863  0.03046770     1.26350
O410        O  0.53823569  0.26424104  0.93583602    -0.66620
O411        O  0.56148341  0.24080491  0.10209554    -0.78920
C412        C  0.55779343  0.18208770  0.02384276     0.84530
O413        O  0.56678435  0.19976020  0.04079056    -0.66090
Ni414      Ni  0.56810384  0.29943132  0.05064957     1.27450
Ni415      Ni  0.55997365  0.26975615  0.94501978     1.26060
H416        H  0.57551411  0.23170393  0.95117618     0.39070
O417        O  0.92831044  0.56484929  0.36881388    -0.80880
O418        O  0.93391186  0.44676639  0.41900844    -0.65570
O419        O  0.94391410  0.51903078  0.39470231    -1.12180
C420        C  0.94225980  0.49236383  0.22416553     1.06000
O421        O  0.95212740  0.43398232  0.36715810    -0.78780
O422        O  0.96839665  0.46912937  0.30915957    -0.66360
Ni423      Ni  0.93345370  0.54660955  0.42941031     1.34870
C424        C  0.97246947  0.49332425  0.30650135     0.84740
O425        O  0.94043985  0.48702682  0.48048811    -0.79320
O426        O  0.93764920  0.53070502  0.49309724    -0.89600
C427        C  0.94227588  0.42871955  0.40103467     0.84310
O428        O  0.91342935  0.53164275  0.43029190    -0.67800
O429        O  0.94544230  0.46938286  0.24106684    -0.87090
C430        C  0.90818864  0.50832946  0.42511640     0.85140
C431        C  0.93963942  0.50719698  0.50926709     1.06710
H432        H  0.92625860  0.47743554  0.32875328     0.38510
O433        O  0.93685486  0.48044108  0.33756661    -1.09740
O434        O  0.96329386  0.51240181  0.31365488    -0.66400
Ni435      Ni  0.94159810  0.51659124  0.32316686     1.26350
O436        O  0.91657028  0.48853800  0.41453042    -0.66620
O437        O  0.93925317  0.51233741  0.25190816    -0.78920
C438        C  0.93789580  0.57111487  0.33515828     0.84530
O439        O  0.94574350  0.55355700  0.31321344    -0.66090
Ni440      Ni  0.94843815  0.45323702  0.30565386     1.27450
Ni441      Ni  0.93849280  0.48321256  0.40899218     1.26060
H442        H  0.95466324  0.52115056  0.40233432     0.39070
O443        O  0.92624488  0.56193599  0.86906012    -0.80880
O444        O  0.93533484  0.44582797  0.92099498    -0.65570
O445        O  0.94336300  0.51861911  0.89503290    -1.12180
C446        C  0.93733961  0.49152007  0.72470950     1.06000
O447        O  0.95215881  0.43340167  0.86367709    -0.78780
O448        O  0.96557280  0.46817630  0.79815566    -0.66360
Ni449      Ni  0.93236745  0.54540235  0.93008969     1.34870
C450        C  0.97002440  0.49216106  0.79777957     0.84740
O451        O  0.94154414  0.48672687  0.98135353    -0.79320
O452        O  0.93729163  0.53027390  0.99391202    -0.89600
C453        C  0.94391995  0.42842838  0.90201983     0.84310
O454        O  0.91290028  0.52881640  0.93154320    -0.67800
O455        O  0.94034134  0.46822979  0.74073050    -0.87090
C456        C  0.90835778  0.50508111  0.92732002     0.85140
C457        C  0.93973493  0.50684258  0.00979718     1.06710
H458        H  0.92500046  0.47712962  0.83295043     0.38510
O459        O  0.93578765  0.47985516  0.83921194    -1.09740
O460        O  0.96162859  0.51149393  0.81093360    -0.66400
Ni461      Ni  0.94006414  0.51612022  0.82387096     1.26350
O462        O  0.91718084  0.48579487  0.91895542    -0.66620
O463        O  0.93638992  0.51184169  0.75326373    -0.78920
C464        C  0.93590142  0.57035325  0.83750658     0.84530
O465        O  0.94387584  0.55359080  0.81358349    -0.66090
Ni466      Ni  0.94584813  0.45226149  0.80373895     1.27450
Ni467      Ni  0.93889761  0.48249109  0.91013175     1.26060
H468        H  0.95413048  0.52163952  0.90122333     0.39070
O469        O  0.82485506  0.56060113  0.02700785    -0.80880
O470        O  0.81836973  0.44454032  0.97389449    -0.65570
O471        O  0.80876777  0.51658818  0.99805574    -1.12180
C472        C  0.81058714  0.48838345  0.16908317     1.06000
O473        O  0.79961420  0.43227949  0.02492702    -0.78780
O474        O  0.78445540  0.46573618  0.08913711    -0.66360
Ni475      Ni  0.81919262  0.54463719  0.96489609     1.34870
C476        C  0.77975607  0.48945520  0.08507284     0.84740
O477        O  0.81308826  0.48566165  0.91211187    -0.79320
O478        O  0.81446201  0.52998619  0.90036112    -0.89600
C479        C  0.80940681  0.42686166  0.99109345     0.84310
O480        O  0.83890564  0.52952193  0.96204523    -0.67800
O481        O  0.80873880  0.46493976  0.15204876    -0.87090
C482        C  0.84431302  0.50662839  0.96949906     0.85140
C483        C  0.81331291  0.50629306  0.88407622     1.06710
H484        H  0.82587510  0.47573693  0.06490524     0.38510
O485        O  0.81530068  0.47808483  0.05546258    -1.09740
O486        O  0.78856465  0.50873428  0.07395190    -0.66400
Ni487      Ni  0.81027000  0.51392498  0.06973642     1.26350
O488        O  0.83609055  0.48670181  0.98147534    -0.66620
O489        O  0.81153852  0.50920917  0.14152759    -0.78920
C490        C  0.81504742  0.56804667  0.05882683     0.84530
O491        O  0.80621885  0.55107345  0.07934326    -0.66090
Ni492      Ni  0.80437143  0.45001118  0.08731581     1.27450
Ni493      Ni  0.81418487  0.48108071  0.98394330     1.26060
H494        H  0.79810966  0.51846107  0.98915385     0.39070
O495        O  0.82101440  0.56176253  0.51795060    -0.80880
O496        O  0.82029142  0.44251943  0.48033680    -0.65570
O497        O  0.80700818  0.51339271  0.49757210    -1.12180
C498        C  0.81026061  0.49268036  0.67021710     1.06000
O499        O  0.80292065  0.42798906  0.53479405    -0.78780
O500        O  0.78514364  0.46202837  0.58761518    -0.66360
Ni501      Ni  0.81570006  0.54174612  0.45975527     1.34870
C502        C  0.77995215  0.48541981  0.58895040     0.84740
O503        O  0.81261332  0.48023846  0.41472846    -0.79320
O504        O  0.81114031  0.52397949  0.39848681    -0.89600
C505        C  0.81194050  0.42408888  0.49796523     0.84310
O506        O  0.83624790  0.52965894  0.45564403    -0.67800
O507        O  0.80766601  0.46882235  0.65646588    -0.87090
C508        C  0.84283588  0.50772907  0.46355935     0.85140
C509        C  0.81165828  0.49986139  0.38450046     1.06710
H510        H  0.82662286  0.47671496  0.56734029     0.38510
O511        O  0.81592972  0.47778554  0.55836269    -1.09740
O512        O  0.78819518  0.50580892  0.57987007    -0.66400
Ni513      Ni  0.80962940  0.51343072  0.56886137     1.26350
O514        O  0.83578477  0.48745009  0.48079310    -0.66620
O515        O  0.81252709  0.51194267  0.63997452    -0.78920
C516        C  0.81159129  0.56774285  0.55206818     0.84530
O517        O  0.80407993  0.54994265  0.57519007    -0.66090
Ni518      Ni  0.80569588  0.44989883  0.59377309     1.27450
Ni519      Ni  0.81425793  0.47842440  0.48678894     1.26060
H520        H  0.79617281  0.51330722  0.49030871     0.39070
O521        O  0.92648912  0.19100973  0.02736785    -0.80880
O522        O  0.93464625  0.30621563  0.97434915    -0.65570
O523        O  0.94369504  0.23430276  0.00147945    -1.12180
C524        C  0.93986562  0.26196771  0.17135082     1.06000
O525        O  0.95226185  0.31975677  0.02816407    -0.78780
O526        O  0.96728442  0.28492131  0.08876293    -0.66360
Ni527      Ni  0.93334755  0.20667481  0.96628049     1.34870
C528        C  0.97122219  0.26082584  0.09224799     0.84740
O529        O  0.94101780  0.26523660  0.91436939    -0.79320
O530        O  0.93927927  0.22101417  0.90265380    -0.89600
C531        C  0.94328017  0.32423608  0.99152051     0.84310
O532        O  0.91376816  0.22231494  0.95867263    -0.67800
O533        O  0.94355841  0.28485091  0.15430687    -0.87090
C534        C  0.90857746  0.24544226  0.96515152     0.85140
C535        C  0.94080108  0.24466343  0.88637070     1.06710
H536        H  0.92572486  0.27617597  0.06459014     0.38510
O537        O  0.93638999  0.27318129  0.05700081    -1.09740
O538        O  0.96217718  0.24139025  0.08481652    -0.66400
Ni539      Ni  0.94058200  0.23705626  0.07275906     1.26350
O540        O  0.91687922  0.26473778  0.97947251    -0.66620
O541        O  0.93750325  0.24167830  0.14362314    -0.78920
C542        C  0.93591273  0.18308901  0.05997223     0.84530
O543        O  0.94402770  0.19985944  0.08357256    -0.66090
Ni544      Ni  0.94751822  0.30076981  0.08966843     1.27450
Ni545      Ni  0.93872616  0.26987608  0.98587848     1.26060
H546        H  0.95450389  0.23209865  0.99513022     0.39070
O547        O  0.92880193  0.19085395  0.51900707    -0.80880
O548        O  0.93208845  0.30777485  0.47922877    -0.65570
O549        O  0.94465602  0.23705811  0.50161673    -1.12180
C550        C  0.93991364  0.25980571  0.67189413     1.06000
O551        O  0.94962906  0.32220196  0.53323536    -0.78780
O552        O  0.96672322  0.28630987  0.58481502    -0.66360
Ni553      Ni  0.93679103  0.20901803  0.46173114     1.34870
C554        C  0.97088794  0.26265983  0.59295282     0.84740
O555        O  0.93960427  0.26899603  0.41610096    -0.79320
O556        O  0.94393215  0.22574036  0.40155814    -0.89600
C557        C  0.94096222  0.32579042  0.49540870     0.84310
O558        O  0.91688590  0.22244893  0.44913087    -0.67800
O559        O  0.94455543  0.28245959  0.65627807    -0.87090
C560        C  0.90959514  0.24302117  0.46152686     0.85140
C561        C  0.94228482  0.24958245  0.38672386     1.06710
H562        H  0.92491218  0.27622548  0.56763196     0.38510
O563        O  0.93557332  0.27371291  0.55932695    -1.09740
O564        O  0.96180609  0.24294617  0.58885185    -0.66400
Ni565      Ni  0.94044829  0.23763308  0.57242011     1.26350
O566        O  0.91615211  0.26267264  0.48277798    -0.66620
O567        O  0.93616078  0.24063237  0.64288417    -0.78920
C568        C  0.93718222  0.18341965  0.55501531     0.84530
O569        O  0.94446847  0.20044574  0.58081417    -0.66090
Ni570      Ni  0.94674076  0.30078747  0.59298316     1.27450
Ni571      Ni  0.93770788  0.27186831  0.48810590     1.26060
H572        H  0.95562564  0.23710920  0.49695014     0.39070
O573        O  0.82304323  0.18736456  0.36632363    -0.80880
O574        O  0.81861099  0.30539268  0.41517606    -0.65570
O575        O  0.80815174  0.23318048  0.39384586    -1.12180
C576        C  0.81239877  0.25895923  0.22180023     1.06000
O577        O  0.80105863  0.31804683  0.36049318    -0.78780
O578        O  0.78650219  0.28508885  0.29348021    -0.66360
Ni579      Ni  0.81878223  0.20555199  0.42743728     1.34870
C580        C  0.78074383  0.26209821  0.29897074     0.84740
O581        O  0.81217803  0.26544562  0.47826916    -0.79320
O582        O  0.81557055  0.22172742  0.49140724    -0.89600
C583        C  0.80984189  0.32297651  0.39745958     0.84310
O584        O  0.83885859  0.22002883  0.42458050    -0.67800
O585        O  0.81173084  0.28290335  0.23721981    -0.87090
C586        C  0.84425496  0.24328672  0.41999564     0.85140
C587        C  0.81380085  0.24535992  0.50710738     1.06710
H588        H  0.82674134  0.27182931  0.32710605     0.38510
O589        O  0.81598019  0.27066567  0.33526189    -1.09740
O590        O  0.78821270  0.24226882  0.31554532    -0.66400
Ni591      Ni  0.80987614  0.23511811  0.32220847     1.26350
O592        O  0.83584775  0.26334074  0.41232244    -0.66620
O593        O  0.81190264  0.23870340  0.25071025    -0.78920
C594        C  0.81300236  0.18073983  0.33448383     0.84530
O595        O  0.80474083  0.19824482  0.31366664    -0.66090
Ni596      Ni  0.80671291  0.29917636  0.30011882     1.27450
Ni597      Ni  0.81401231  0.26886833  0.40662489     1.26060
H598        H  0.79746784  0.23129287  0.40265975     0.39070
O599        O  0.82553469  0.18809500  0.86606652    -0.80880
O600        O  0.81746621  0.30485262  0.91862203    -0.65570
O601        O  0.80881725  0.23230582  0.89233114    -1.12180
C602        C  0.81266782  0.25961316  0.72206478     1.06000
O603        O  0.80071175  0.31849878  0.86230030    -0.78780
O604        O  0.78591219  0.28364531  0.80090363    -0.66360
Ni605      Ni  0.81974755  0.20517571  0.92694854     1.34870
C606        C  0.78136133  0.25971375  0.79907103     0.84740
O607        O  0.81113654  0.26390866  0.97834798    -0.79320
O608        O  0.81499292  0.22033963  0.99085418    -0.89600
C609        C  0.80885118  0.32269895  0.90108131     0.84310
O610        O  0.83952044  0.22109111  0.92788516    -0.67800
O611        O  0.81002433  0.28282570  0.73867865    -0.87090
C612        C  0.84422701  0.24473113  0.92303559     0.85140
C613        C  0.81235734  0.24367122  0.00689419     1.06710
H614        H  0.82696653  0.27382912  0.82899233     0.38510
O615        O  0.81622276  0.27119500  0.83620175    -1.09740
O616        O  0.78990859  0.24005962  0.80964214    -0.66400
Ni617      Ni  0.81157132  0.23498112  0.82109257     1.26350
O618        O  0.83543581  0.26417403  0.91467942    -0.66620
O619        O  0.81456297  0.23927682  0.75010400    -0.78920
C620        C  0.81613414  0.18063848  0.83285943     0.84530
O621        O  0.80767212  0.19758639  0.81115399    -0.66090
Ni622      Ni  0.80584701  0.29903381  0.80215930     1.27450
Ni623      Ni  0.81361893  0.26827063  0.90726976     1.26060
H624        H  0.79806829  0.22953761  0.89930691     0.39070
O625        O  0.92563254  0.69169275  0.27543866    -0.80880
O626        O  0.93063231  0.80955655  0.23019751    -0.65570
O627        O  0.94058496  0.73730526  0.24929387    -1.12180
C628        C  0.93905838  0.76103525  0.42278195     1.06000
O629        O  0.94877495  0.82157964  0.28380571    -0.78780
O630        O  0.96399891  0.78746846  0.34512546    -0.66360
Ni631      Ni  0.93009422  0.70998081  0.21432153     1.34870
C632        C  0.96915374  0.76414733  0.34031985     0.84740
O633        O  0.93661945  0.77057929  0.16624856    -0.79320
O634        O  0.93344957  0.72705719  0.15034232    -0.89600
C635        C  0.94009669  0.82651456  0.24667827     0.84310
O636        O  0.91011634  0.72380917  0.21709028    -0.67800
O637        O  0.93999161  0.78502027  0.40763223    -0.87090
C638        C  0.90459740  0.74670742  0.22288588     0.85140
C639        C  0.93540501  0.75106378  0.13604022     1.06710
H640        H  0.92278533  0.77548822  0.31899599     0.38510
O641        O  0.93344483  0.77404971  0.30977710    -1.09740
O642        O  0.96094526  0.74460201  0.32625771    -0.66400
Ni643      Ni  0.93926989  0.73816822  0.32127849     1.26350
O644        O  0.91287660  0.76692743  0.23282334    -0.66620
O645        O  0.93812755  0.74092670  0.39357651    -0.78920
C646        C  0.93589828  0.68399257  0.30546374     0.84530
O647        O  0.94418998  0.70113469  0.32759873    -0.66090
Ni648      Ni  0.94388953  0.80189757  0.34412101     1.27450
Ni649      Ni  0.93487359  0.77295940  0.23801812     1.26060
H650        H  0.95123287  0.73581077  0.23995149     0.39070
O651        O  0.92888245  0.69041492  0.77952347    -0.80880
O652        O  0.93508308  0.80694779  0.72557982    -0.65570
O653        O  0.94508018  0.73533477  0.75315580    -1.12180
C654        C  0.94127668  0.76630564  0.92128925     1.06000
O655        O  0.95471793  0.81938257  0.77281002    -0.78780
O656        O  0.96972371  0.78565381  0.83904004    -0.66360
Ni657      Ni  0.93522834  0.70699068  0.71843130     1.34870
C658        C  0.97328862  0.76137565  0.84374152     0.84740
O659        O  0.93993753  0.76577983  0.66514622    -0.79320
O660        O  0.94040984  0.72158353  0.65410296    -0.89600
C661        C  0.94489345  0.82423807  0.73851888     0.84310
O662        O  0.91548470  0.72201516  0.71340823    -0.67800
O663        O  0.94566345  0.78842402  0.90254884    -0.87090
C664        C  0.90958518  0.74447489  0.72184648     0.85140
C665        C  0.94013306  0.74523228  0.63730308     1.06710
H666        H  0.92779542  0.77831600  0.81686809     0.38510
O667        O  0.93828769  0.77478547  0.80768669    -1.09740
O668        O  0.96389264  0.74245576  0.83637694    -0.66400
Ni669      Ni  0.94218386  0.73894818  0.82465623     1.26350
O670        O  0.91744082  0.76450892  0.73555734    -0.66620
O671        O  0.93888931  0.74531349  0.89508263    -0.78920
C672        C  0.93801957  0.68407715  0.81419745     0.84530
O673        O  0.94552233  0.70183534  0.83748875    -0.66090
Ni674      Ni  0.95007482  0.80248143  0.83686651     1.27450
Ni675      Ni  0.93934573  0.77069872  0.73684825     1.26060
H676        H  0.95590965  0.73376399  0.74649349     0.39070
O677        O  0.82143910  0.68875837  0.11722779    -0.80880
O678        O  0.81413930  0.80551736  0.16773220    -0.65570
O679        O  0.80492647  0.73328881  0.14230494    -1.12180
C680        C  0.80837825  0.75622757  0.97119165     1.06000
O681        O  0.80111271  0.82236335  0.10379878    -0.78780
O682        O  0.78294584  0.78551754  0.05914522    -0.66360
Ni683      Ni  0.81548202  0.70603481  0.17757354     1.34870
C684        C  0.77794488  0.76191674  0.05569769     0.84740
O685        O  0.80693253  0.76504302  0.22751833    -0.79320
O686        O  0.81069303  0.72155202  0.24069553    -0.89600
C687        C  0.80759902  0.82476977  0.14623287     0.84310
O688        O  0.83529528  0.72150580  0.18001105    -0.67800
O689        O  0.80414751  0.77906601  0.98562934    -0.87090
C690        C  0.84019995  0.74506758  0.17612239     0.85140
C691        C  0.80845398  0.74501550  0.25658363     1.06710
H692        H  0.82411240  0.77357890  0.07849179     0.38510
O693        O  0.81329564  0.77137575  0.08498043    -1.09740
O694        O  0.78648811  0.74151471  0.05955602    -0.66400
Ni695      Ni  0.80810722  0.73504660  0.07154558     1.26350
O696        O  0.83166320  0.76464800  0.16633601    -0.66620
O697        O  0.81193708  0.73759212  0.00106963    -0.78920
C698        C  0.81192248  0.68106671  0.08463334     0.84530
O699        O  0.80353019  0.69794010  0.06273907    -0.66090
Ni700      Ni  0.80307645  0.79855733  0.04764299     1.27450
Ni701      Ni  0.80997148  0.76911933  0.15637634     1.26060
H702        H  0.79414377  0.73080817  0.14890721     0.39070
O703        O  0.82503130  0.68814905  0.62108341    -0.80880
O704        O  0.82081299  0.80389649  0.66595732    -0.65570
O705        O  0.80880762  0.73264727  0.64274422    -1.12180
C706        C  0.81150215  0.75664533  0.47292335     1.06000
O707        O  0.80318536  0.81834710  0.61314466    -0.78780
O708        O  0.78565859  0.78164138  0.56356982    -0.66360
Ni709      Ni  0.81769150  0.70469824  0.68029991     1.34870
C710        C  0.78160855  0.75796457  0.55401002     0.84740
O711        O  0.81387879  0.76423049  0.72834165    -0.79320
O712        O  0.81148263  0.72029848  0.74229258    -0.89600
C713        C  0.81235445  0.82231359  0.64967371     0.84310
O714        O  0.83755367  0.71893686  0.68942474    -0.67800
O715        O  0.80702610  0.77901093  0.48977477    -0.87090
C716        C  0.84429555  0.74048605  0.67913918     0.85140
C717        C  0.81228509  0.74422718  0.75738891     1.06710
H718        H  0.82771668  0.77327762  0.57614633     0.38510
O719        O  0.81713512  0.77023295  0.58518127    -1.09740
O720        O  0.79080376  0.73854068  0.55661342    -0.66400
Ni721      Ni  0.81233359  0.73398252  0.57157861     1.26350
O722        O  0.83719594  0.76024001  0.66071221    -0.66620
O723        O  0.81599199  0.73770129  0.50114453    -0.78920
C724        C  0.81610006  0.67985864  0.58742232     0.84530
O725        O  0.80838075  0.69662714  0.56257999    -0.66090
Ni726      Ni  0.80547019  0.79705242  0.55315873     1.27450
Ni727      Ni  0.81544908  0.76779756  0.65646385     1.26060
H728        H  0.79789825  0.73185430  0.64862495     0.39070
O729        O  0.92578419  0.06161239  0.11556968    -0.80880
O730        O  0.93294679  0.94724971  0.16709426    -0.65570
O731        O  0.94311296  0.01892995  0.14010126    -1.12180
C732        C  0.94154929  0.99042958  0.97121282     1.06000
O733        O  0.95227380  0.93484727  0.11873343    -0.78780
O734        O  0.96828580  0.97098872  0.06100534    -0.66360
Ni735      Ni  0.93387874  0.04688340  0.17569920     1.34870
C736        C  0.97170609  0.99531290  0.05444702     0.84740
O737        O  0.93781504  0.98902384  0.22805573    -0.79320
O738        O  0.94089439  0.03295296  0.23823103    -0.89600
C739        C  0.94251430  0.92984695  0.15328218     0.84310
O740        O  0.91457990  0.03107296  0.18780872    -0.67800
O741        O  0.94607975  0.96844374  0.98973709    -0.87090
C742        C  0.90802146  0.00947503  0.17680427     0.85140
C743        C  0.93943636  0.00954035  0.25589243     1.06710
H744        H  0.92601303  0.97573003  0.07519702     0.38510
O745        O  0.93643141  0.97979066  0.08478294    -1.09740
O746        O  0.96193375  0.01370039  0.05823624    -0.66400
Ni747      Ni  0.94019717  0.01602640  0.06875999     1.26350
O748        O  0.91531208  0.99008600  0.15770728    -0.66620
O749        O  0.93751274  0.01042643  0.99769747    -0.78920
C750        C  0.93440250  0.06979402  0.08068158     0.84530
O751        O  0.94288977  0.05352507  0.05746260    -0.66090
Ni752      Ni  0.94889346  0.95321655  0.05558359     1.27450
Ni753      Ni  0.93727465  0.98372559  0.15607608     1.26060
H754        H  0.95396152  0.02039901  0.14664383     0.39070
O755        O  0.92697124  0.06447488  0.62118733    -0.80880
O756        O  0.93381742  0.94430077  0.66238603    -0.65570
O757        O  0.94251392  0.01743858  0.64296552    -1.12180
C758        C  0.93547211  0.99516375  0.47056493     1.06000
O759        O  0.94980584  0.93189465  0.60261881    -0.78780
O760        O  0.96377334  0.96760614  0.53963961    -0.66360
Ni761      Ni  0.93097869  0.04326330  0.67927535     1.34870
C762        C  0.96904680  0.99100662  0.54385335     0.84740
O763        O  0.94095700  0.98308153  0.72586410    -0.79320
O764        O  0.93364969  0.02486181  0.74180407    -0.89600
C765        C  0.94197384  0.92679388  0.64193838     0.84310
O766        O  0.91133590  0.02788586  0.67009841    -0.67800
O767        O  0.93775511  0.97108556  0.48378825    -0.87090
C768        C  0.90688937  0.00400136  0.66832847     0.85140
C769        C  0.93760690  0.00178975  0.75599348     1.06710
H770        H  0.92348140  0.97861539  0.57777503     0.38510
O771        O  0.93434770  0.98030870  0.58379774    -1.09740
O772        O  0.96110805  0.01057957  0.55905255    -0.66400
Ni773      Ni  0.93953934  0.01655085  0.57177141     1.26350
O774        O  0.91598877  0.98459081  0.66522826    -0.66620
O775        O  0.93584148  0.01465926  0.50099331    -0.78920
C776        C  0.93610621  0.07082594  0.58625767     0.84530
O777        O  0.94421193  0.05356261  0.56438625    -0.66090
Ni778      Ni  0.94356627  0.95301239  0.54492250     1.27450
Ni779      Ni  0.93773387  0.98098687  0.65465752     1.26060
H780        H  0.95323406  0.02031402  0.65018518     0.39070
O781        O  0.82480646  0.05941699  0.27369256    -0.80880
O782        O  0.81798697  0.94427915  0.22872723    -0.65570
O783        O  0.80750367  0.01571247  0.25242931    -1.12180
C784        C  0.80956880  0.99019016  0.42258257     1.06000
O785        O  0.79953084  0.93061462  0.28030411    -0.78780
O786        O  0.78293435  0.96772858  0.33131895    -0.66360
Ni787      Ni  0.81673811  0.04336828  0.21464057     1.34870
C788        C  0.77936088  0.99186358  0.33769204     0.84740
O789        O  0.81197770  0.98447162  0.16630500    -0.79320
O790        O  0.80945934  0.02840911  0.15332903    -0.89600
C791        C  0.80908516  0.92636723  0.24510137     0.84310
O792        O  0.83619712  0.02789050  0.20300132    -0.67800
O793        O  0.80454439  0.96813213  0.40557524    -0.87090
C794        C  0.84249493  0.00632448  0.21579605     0.85140
C795        C  0.81011060  0.00459355  0.13771726     1.06710
H796        H  0.82515142  0.97385576  0.31900726     0.38510
O797        O  0.81467811  0.97749631  0.30976430    -1.09740
O798        O  0.78916771  0.01057318  0.33569752    -0.66400
Ni799      Ni  0.81082404  0.01389454  0.32368451     1.26350
O800        O  0.83507002  0.98720065  0.23551066    -0.66620
O801        O  0.81392916  0.00959758  0.39481720    -0.78920
C802        C  0.81614208  0.06780962  0.30811596     0.84530
O803        O  0.80792482  0.05143272  0.33274766    -0.66090
Ni804      Ni  0.80232976  0.95106007  0.34118793     1.27450
Ni805      Ni  0.81327066  0.98041402  0.23836496     1.26060
H806        H  0.79662719  0.01691712  0.24636869     0.39070
O807        O  0.82392566  0.05904632  0.77213975    -0.80880
O808        O  0.81882714  0.94171341  0.73233772    -0.65570
O809        O  0.80778865  0.01348276  0.75155910    -1.12180
C810        C  0.81124776  0.99080698  0.92362610     1.06000
O811        O  0.80123096  0.92804632  0.78688055    -0.78780
O812        O  0.78480955  0.96409731  0.84180006    -0.66360
Ni813      Ni  0.81718181  0.04095493  0.71328957     1.34870
C814        C  0.78028446  0.98796201  0.84292093     0.84740
O815        O  0.81212545  0.98042209  0.66792577    -0.79320
O816        O  0.81140587  0.02427942  0.65162238    -0.89600
C817        C  0.81015575  0.92380026  0.74995292     0.84310
O818        O  0.83706687  0.02656126  0.70656020    -0.67800
O819        O  0.80774720  0.96750086  0.90887404    -0.87090
C820        C  0.84306558  0.00434151  0.71629510     0.85140
C821        C  0.81147975  0.00010056  0.63774953     1.06710
H822        H  0.82639015  0.97448155  0.81988259     0.38510
O823        O  0.81573480  0.97671619  0.81131437    -1.09740
O824        O  0.78922995  0.00752427  0.83447653    -0.66400
Ni825      Ni  0.81080161  0.01299086  0.82294749     1.26350
O826        O  0.83551140  0.98488886  0.73421671    -0.66620
O827        O  0.81391737  0.01041511  0.89426243    -0.78920
C828        C  0.81467005  0.06709975  0.80517637     0.84530
O829        O  0.80665026  0.05041801  0.82977963    -0.66090
Ni830      Ni  0.80485778  0.94944353  0.84616497     1.27450
Ni831      Ni  0.81383179  0.97797007  0.73989442     1.26060
H832        H  0.79693660  0.01447041  0.74489010     0.39070
O833        O  0.20041262  0.07010193  0.23256805    -0.80880
O834        O  0.19195658  0.95024789  0.18057762    -0.65570
O835        O  0.18421279  0.02362049  0.20574125    -1.12180
C836        C  0.18917342  0.99637463  0.37656913     1.06000
O837        O  0.17475516  0.94080918  0.23790034    -0.78780
O838        O  0.16200286  0.97285608  0.30527255    -0.66360
Ni839      Ni  0.19528018  0.05094554  0.17186666     1.34870
C840        C  0.15696896  0.99611783  0.29949809     0.84740
O841        O  0.18460847  0.99178281  0.12049823    -0.79320
O842        O  0.19098626  0.03472432  0.10822861    -0.89600
C843        C  0.18407309  0.93327784  0.20467170     0.84310
O844        O  0.21503890  0.03498329  0.17132637    -0.67800
O845        O  0.18765925  0.97265237  0.36067474    -0.87090
C846        C  0.21896732  0.01085847  0.16768553     0.85140
C847        C  0.18718470  0.01177135  0.09211478     1.06710
H848        H  0.20272394  0.98282630  0.26739100     0.38510
O849        O  0.19188333  0.98502102  0.26168768    -1.09740
O850        O  0.16521052  0.01551598  0.28493344    -0.66400
Ni851      Ni  0.18698478  0.02077281  0.27653788     1.26350
O852        O  0.20989942  0.99164189  0.17701854    -0.66620
O853        O  0.18968219  0.01657997  0.34761740    -0.78920
C854        C  0.19149198  0.07531920  0.26892764     0.84530
O855        O  0.18293016  0.05733943  0.28719106    -0.66090
Ni856      Ni  0.18167932  0.95749416  0.29800917     1.27450
Ni857      Ni  0.18834058  0.98743244  0.19081627     1.26060
H858        H  0.17351054  0.02663228  0.19876654     0.39070
O859        O  0.20121771  0.07109238  0.73033524    -0.80880
O860        O  0.19345326  0.94878017  0.68456399    -0.65570
O861        O  0.18609158  0.02273231  0.70604734    -1.12180
C862        C  0.18972640  0.99689974  0.87789843     1.06000
O863        O  0.17570388  0.93997929  0.74075947    -0.78780
O864        O  0.16290680  0.97336783  0.80586225    -0.66360
Ni865      Ni  0.19744594  0.04950004  0.67139964     1.34870
C866        C  0.15804722  0.99656423  0.79778736     0.84740
O867        O  0.18670653  0.98949824  0.62236683    -0.79320
O868        O  0.19449114  0.03145644  0.60855262    -0.89600
C869        C  0.18472067  0.93226620  0.70669358     0.84310
O870        O  0.21717608  0.03393174  0.67766293    -0.67800
O871        O  0.18823140  0.97300287  0.86312807    -0.87090
C872        C  0.22114173  0.00983926  0.67395781     0.85140
C873        C  0.19019538  0.00864357  0.59305606     1.06710
H874        H  0.20396810  0.98217902  0.77058243     0.38510
O875        O  0.19318177  0.98447747  0.76399486    -1.09740
O876        O  0.16652507  0.01560659  0.78322478    -0.66400
Ni877      Ni  0.18832918  0.02044989  0.77717819     1.26350
O878        O  0.21184076  0.99049342  0.68019633    -0.66620
O879        O  0.19027223  0.01687422  0.84851951    -0.78920
C880        C  0.19289520  0.07500075  0.76883079     0.84530
O881        O  0.18435249  0.05701272  0.78689034    -0.66090
Ni882      Ni  0.18251541  0.95742763  0.80051580     1.27450
Ni883      Ni  0.19013391  0.98621011  0.69298499     1.26060
H884        H  0.17545840  0.02578174  0.69808296     0.39070
O885        O  0.04906745  0.07061429  0.40832038    -0.80880
O886        O  0.05896695  0.95062816  0.46113828    -0.65570
O887        O  0.06532654  0.02491268  0.43695965    -1.12180
C888        C  0.06025349  0.99781742  0.26551660     1.06000
O889        O  0.07596138  0.94387409  0.40229411    -0.78780
O890        O  0.08719845  0.97609183  0.33035909    -0.66360
Ni891      Ni  0.05383170  0.05151443  0.46950106     1.34870
C892        C  0.09277666  0.99857008  0.34154920     0.84740
O893        O  0.06513836  0.99284099  0.52221124    -0.79320
O894        O  0.05783422  0.03518361  0.53318766    -0.89600
C895        C  0.06693841  0.93463831  0.43524240     0.84310
O896        O  0.03432813  0.03433120  0.46782744    -0.67800
O897        O  0.06021587  0.97398316  0.28166624    -0.87090
C898        C  0.03078254  0.01004187  0.47331778     0.85140
C899        C  0.06180417  0.01260169  0.55028625     1.06710
H900        H  0.04719954  0.98433680  0.37519905     0.38510
O901        O  0.05807577  0.98641697  0.38063234    -1.09740
O902        O  0.08499786  0.01697643  0.36128198    -0.66400
Ni903      Ni  0.06322294  0.02215568  0.36598010     1.26350
O904        O  0.04013577  0.99117718  0.46636164    -0.66620
O905        O  0.06154044  0.01795931  0.29431890    -0.78920
C906        C  0.05815308  0.07613283  0.37235912     0.84530
O907        O  0.06731418  0.05885568  0.35564413    -0.66090
Ni908      Ni  0.06783234  0.95945450  0.34288922     1.27450
Ni909      Ni  0.06170104  0.98839830  0.45170023     1.26060
H910        H  0.07591443  0.02860939  0.44492873     0.39070
O911        O  0.05243334  0.07090481  0.90858320    -0.80880
O912        O  0.05926087  0.95083622  0.96101053    -0.65570
O913        O  0.06755669  0.02411036  0.93580411    -1.12180
C914        C  0.06040812  0.99567420  0.76568408     1.06000
O915        O  0.07637026  0.94369526  0.90275922    -0.78780
O916        O  0.08733183  0.97371380  0.82693209    -0.66360
Ni917      Ni  0.05762892  0.05202818  0.96973905     1.34870
C918        C  0.09355707  0.99579161  0.83747014     0.84740
O919        O  0.06676387  0.99234755  0.02147515    -0.79320
O920        O  0.06216390  0.03576912  0.03346202    -0.89600
C921        C  0.06715994  0.93471828  0.93529058     0.84310
O922        O  0.03756060  0.03703911  0.97294776    -0.67800
O923        O  0.05957049  0.97219441  0.78304881    -0.87090
C924        C  0.03304151  0.01314435  0.97698344     0.85140
C925        C  0.06507502  0.01248116  0.04999084     1.06710
H926        H  0.04792891  0.98468348  0.87581219     0.38510
O927        O  0.05886478  0.98605909  0.88069091    -1.09740
O928        O  0.08636681  0.01444946  0.85870390    -0.66400
Ni929      Ni  0.06475863  0.02106201  0.86497792     1.26350
O930        O  0.04145533  0.99335858  0.96649036    -0.66620
O931        O  0.06240376  0.01618891  0.79339783    -0.78920
C932        C  0.06078507  0.07507735  0.86997143     0.84530
O933        O  0.06955048  0.05721364  0.85352445    -0.66090
Ni934      Ni  0.06785301  0.95826783  0.84345286     1.27450
Ni935      Ni  0.06287388  0.98819694  0.95127551     1.26060
H936        H  0.07833158  0.02660094  0.94261252     0.39070
O937        O  0.04920169  0.18444144  0.24240717    -0.80880
O938        O  0.05827639  0.30512733  0.19007330    -0.65570
O939        O  0.06507967  0.23130050  0.21521067    -1.12180
C940        C  0.06051105  0.25958827  0.38583082     1.06000
O941        O  0.07588262  0.31295379  0.24586776    -0.78780
O942        O  0.08797478  0.28115243  0.31535848    -0.66360
Ni943      Ni  0.05364531  0.20441908  0.18186373     1.34870
C944        C  0.09290091  0.25809556  0.30647759     0.84740
O945        O  0.06502794  0.26355930  0.13019889    -0.79320
O946        O  0.05727514  0.22138425  0.11805608    -0.89600
C947        C  0.06642358  0.32168344  0.21421680     0.84310
O948        O  0.03407017  0.22065099  0.18567040    -0.67800
O949        O  0.06184361  0.28315852  0.36913511    -0.87090
C950        C  0.03048311  0.24478476  0.18004836     0.85140
C951        C  0.06163676  0.24408642  0.10178319     1.06710
H952        H  0.04711092  0.27256492  0.27694874     0.38510
O953        O  0.05792532  0.27013104  0.27103211    -1.09740
O954        O  0.08446118  0.23917170  0.29156180    -0.66400
Ni955      Ni  0.06268531  0.23436397  0.28619492     1.26350
O956        O  0.03982044  0.26398092  0.18600611    -0.66620
O957        O  0.06059759  0.23906646  0.35758098    -0.78920
C958        C  0.05819035  0.17976268  0.27887889     0.84530
O959        O  0.06663905  0.19775688  0.29737954    -0.66090
Ni960      Ni  0.06851141  0.29739969  0.30655632     1.27450
Ni961      Ni  0.06138563  0.26773097  0.20024248     1.26060
H962        H  0.07569883  0.22789125  0.20756607     0.39070
O963        O  0.04930490  0.18308691  0.74052215    -0.80880
O964        O  0.05900973  0.30407575  0.69091879    -0.65570
O965        O  0.06516849  0.22995483  0.71359525    -1.12180
C966        C  0.06075104  0.25572214  0.88565557     1.06000
O967        O  0.07585231  0.31304226  0.75011351    -0.78780
O968        O  0.08790554  0.27933820  0.81713703    -0.66360
Ni969      Ni  0.05313191  0.20372765  0.68059791     1.34870
C970        C  0.09327608  0.25687059  0.80562127     0.84740
O971        O  0.06525193  0.26257608  0.62961614    -0.79320
O972        O  0.05615178  0.22123290  0.61728063    -0.89600
C973        C  0.06741803  0.32059191  0.71427151     0.84310
O974        O  0.03372692  0.22031489  0.68765777    -0.67800
O975        O  0.06145730  0.27965873  0.87027086    -0.87090
C976        C  0.03029260  0.24453148  0.68201239     0.85140
C977        C  0.06134961  0.24334180  0.60103017     1.06710
H978        H  0.04741350  0.27025995  0.77687526     0.38510
O979        O  0.05826168  0.26830876  0.77096440    -1.09740
O980        O  0.08514228  0.23797420  0.78855908    -0.66400
Ni981      Ni  0.06330116  0.23243502  0.78461729     1.26350
O982        O  0.03999653  0.26336058  0.68631490    -0.66620
O983        O  0.06162891  0.23589100  0.85623716    -0.78920
C984        C  0.05830911  0.17837702  0.77690094     0.84530
O985        O  0.06732575  0.19585838  0.79415003    -0.66090
Ni986      Ni  0.06829302  0.29533374  0.80879946     1.27450
Ni987      Ni  0.06167507  0.26651043  0.70004085     1.26060
H988        H  0.07569222  0.22627999  0.70503350     0.39070
O989        O  0.19998875  0.18253398  0.40214109    -0.80880
O990        O  0.19241799  0.30294332  0.45416849    -0.65570
O991        O  0.18487858  0.22940094  0.42900452    -1.12180
C992        C  0.19025696  0.25842908  0.25838210     1.06000
O993        O  0.17500782  0.31046278  0.39722663    -0.78780
O994        O  0.16348862  0.27968312  0.32419112    -0.66360
Ni995      Ni  0.19543347  0.20199615  0.46294152     1.34870
C996        C  0.15774997  0.25726936  0.33519513     0.84740
O997        O  0.18540511  0.26132209  0.51396998    -0.79320
O998        O  0.19156690  0.21856043  0.52668492    -0.89600
C999        C  0.18415240  0.31923813  0.43010107     0.84310
O1000       O  0.21530363  0.21772893  0.46230761    -0.67800
O1001       O  0.19058682  0.28195403  0.27554234    -0.87090
C1002       C  0.21961801  0.24174911  0.46588077     0.85140
C1003       C  0.18800277  0.24160196  0.54266946     1.06710
H1004       H  0.20360382  0.26989309  0.36757877     0.38510
O1005       O  0.19272433  0.26800747  0.37324863    -1.09740
O1006       O  0.16549707  0.23845083  0.35365485    -0.66400
Ni1007     Ni  0.18720421  0.23263769  0.35791571     1.26350
O1008       O  0.21072168  0.26127135  0.45786512    -0.66620
O1009       O  0.18901081  0.23772347  0.28619830    -0.78920
C1010       C  0.19112529  0.17818023  0.36506849     0.84530
O1011       O  0.18273990  0.19618096  0.34671700    -0.66090
Ni1012     Ni  0.18302271  0.29567784  0.33712955     1.27450
Ni1013     Ni  0.18912868  0.26556850  0.44397124     1.26060
H1014       H  0.17418919  0.22642176  0.43661615     0.39070
O1015       O  0.19978560  0.18179135  0.90413060    -0.80880
O1016       O  0.19545535  0.30232741  0.95128775    -0.65570
O1017       O  0.18503584  0.22938952  0.93004005    -1.12180
C1018       C  0.19053877  0.25437333  0.75815473     1.06000
O1019       O  0.17797774  0.31204210  0.89503296    -0.78780
O1020       O  0.16420201  0.28047588  0.82798283    -0.66360
Ni1021     Ni  0.19470442  0.20114775  0.96458195     1.34870
C1022       C  0.15828111  0.25789152  0.83607344     0.84740
O1023       O  0.18849179  0.26173617  0.01452371    -0.79320
O1024       O  0.19029520  0.21766816  0.02759945    -0.89600
C1025       C  0.18743895  0.31945976  0.92823257     0.84310
O1026       O  0.21493744  0.21558575  0.96849565    -0.67800
O1027       O  0.19013122  0.27837911  0.77322153    -0.87090
C1028       C  0.22024686  0.23906627  0.96617047     0.85140
C1029       C  0.18942471  0.24147951  0.04343749     1.06710
H1030       H  0.20432307  0.26770821  0.86489754     0.38510
O1031       O  0.19348651  0.26656747  0.87192917    -1.09740
O1032       O  0.16579991  0.23814119  0.85218109    -0.66400
Ni1033     Ni  0.18737654  0.23120999  0.85894541     1.26350
O1034       O  0.21225401  0.25877688  0.95222730    -0.66620
O1035       O  0.18963249  0.23448917  0.78769143    -0.78920
C1036       C  0.19078188  0.17689568  0.86762861     0.84530
O1037       O  0.18229754  0.19487719  0.84980697    -0.66090
Ni1038     Ni  0.18436142  0.29450393  0.83519974     1.27450
Ni1039     Ni  0.19077613  0.26516950  0.94313678     1.26060
H1040       H  0.17426289  0.22778114  0.93779098     0.39070
O1041       O  0.04731764  0.68474856  0.48939407    -0.80880
O1042       O  0.05655758  0.80431300  0.43500468    -0.65570
O1043       O  0.06334494  0.73016669  0.45736920    -1.12180
C1044       C  0.06398778  0.75746709  0.62965865     1.06000
O1045       O  0.07569052  0.81153783  0.48652090    -0.78780
O1046       O  0.08916135  0.77894975  0.55185512    -0.66360
Ni1047     Ni  0.05126254  0.70321056  0.42691621     1.34870
C1048       C  0.09371853  0.75572298  0.54242315     0.84740
O1049       O  0.06084425  0.76206221  0.37186823    -0.79320
O1050       O  0.05433273  0.71890815  0.36176400    -0.89600
C1051       C  0.06592990  0.82029528  0.45578019     0.84310
O1052       O  0.03194590  0.72010939  0.43105666    -0.67800
O1053       O  0.06480146  0.78125776  0.61334897    -0.87090
C1054       C  0.02799967  0.74426900  0.43089120     0.85140
C1055       C  0.05789399  0.74177072  0.34446718     1.06710
H1056       H  0.04763786  0.77146536  0.52503987     0.38510
O1057       O  0.05820956  0.76887162  0.51567937    -1.09740
O1058       O  0.08490863  0.73698593  0.52881888    -0.66400
Ni1059     Ni  0.06300302  0.73289814  0.52897269     1.26350
O1060       O  0.03742910  0.76329034  0.43806506    -0.66620
O1061       O  0.06314531  0.73718506  0.60092607    -0.78920
C1062       C  0.05727956  0.67871222  0.52226053     0.84530
O1063       O  0.06665352  0.69605646  0.53821093    -0.66090
Ni1064     Ni  0.06975552  0.79574981  0.54879499     1.27450
Ni1065     Ni  0.05941859  0.76658200  0.44372179     1.26060
H1066       H  0.07372896  0.72680506  0.44678351     0.39070
O1067       O  0.05273978  0.68383239  0.98041878    -0.80880
O1068       O  0.06005330  0.80362741  0.93170794    -0.65570
O1069       O  0.06917306  0.73120420  0.95944159    -1.12180
C1070       C  0.06317847  0.75135438  0.12964508     1.06000
O1071       O  0.06992058  0.81999262  0.00270725    -0.78780
O1072       O  0.08874436  0.78395645  0.04061945    -0.66360
Ni1073     Ni  0.06019867  0.70288977  0.92197699     1.34870
C1074       C  0.09409850  0.76098314  0.04719495     0.84740
O1075       O  0.06890833  0.76293871  0.87316562    -0.79320
O1076       O  0.06720251  0.71878101  0.86095694    -0.89600
C1077       C  0.06505264  0.82269861  0.95829034     0.84310
O1078       O  0.04028134  0.71757813  0.90997115    -0.67800
O1079       O  0.06824750  0.77391496  0.11638422    -0.87090
C1080       C  0.03511250  0.74106318  0.91183188     0.85140
C1081       C  0.06916815  0.74238933  0.84480453     1.06710
H1082       H  0.04809022  0.77034859  0.01855530     0.38510
O1083       O  0.05903151  0.76855230  0.01466740    -1.09740
O1084       O  0.08574630  0.74005564  0.04562748    -0.66400
Ni1085     Ni  0.06433592  0.73261595  0.02888140     1.26350
O1086       O  0.04287528  0.76074872  0.92767966    -0.66620
O1087       O  0.05879102  0.73407552  0.09828376    -0.78920
C1088       C  0.06068736  0.67878091  0.01922279     0.84530
O1089       O  0.06908463  0.69643704  0.03873331    -0.66090
Ni1090     Ni  0.06861663  0.79493334  0.05583951     1.27450
Ni1091     Ni  0.06413158  0.76685147  0.94384478     1.26060
H1092       H  0.08013019  0.72951000  0.95582558     0.39070
O1093       O  0.20014859  0.68282617  0.15880427    -0.80880
O1094       O  0.19371568  0.80396466  0.20343999    -0.65570
O1095       O  0.18504044  0.73035459  0.18136886    -1.12180
C1096       C  0.19233102  0.75611847  0.00963234     1.06000
O1097       O  0.17653208  0.81102659  0.14522977    -0.78780
O1098       O  0.16496083  0.77986334  0.07479337    -0.66360
Ni1099     Ni  0.19425138  0.70250655  0.21818978     1.34870
C1100       C  0.15905766  0.75746484  0.08444219     0.84740
O1101       O  0.18602251  0.76331048  0.26574291    -0.79320
O1102       O  0.18883171  0.71943941  0.28046569    -0.89600
C1103       C  0.18509583  0.81987828  0.17957002     0.84310
O1104       O  0.21434714  0.71722092  0.22333811    -0.67800
O1105       O  0.19168420  0.77993307  0.02529794    -0.87090
C1106       C  0.21938995  0.74087522  0.22307773     0.85140
C1107       C  0.18645818  0.74320646  0.29505251     1.06710
H1108       H  0.20479856  0.76930357  0.11906344     0.38510
O1109       O  0.19388590  0.76769387  0.12431371    -1.09740
O1110       O  0.16663253  0.73823176  0.10214698    -0.66400
Ni1111     Ni  0.18824439  0.73221273  0.11037366     1.26350
O1112       O  0.21145069  0.76082374  0.20960869    -0.66620
O1113       O  0.19118059  0.73588454  0.03871468    -0.78920
C1114       C  0.19169550  0.67798716  0.12092065     0.84530
O1115       O  0.18355634  0.69579191  0.10092068    -0.66090
Ni1116     Ni  0.18458403  0.79503161  0.08636212     1.27450
Ni1117     Ni  0.18998448  0.76643447  0.19512677     1.26060
H1118       H  0.17419399  0.72838960  0.18756923     0.39070
O1119       O  0.20067624  0.68210163  0.65393985    -0.80880
O1120       O  0.19181711  0.80224720  0.70519482    -0.65570
O1121       O  0.18506269  0.72826044  0.68149714    -1.12180
C1122       C  0.18956816  0.75560199  0.50959642     1.06000
O1123       O  0.17491938  0.81057635  0.64672544    -0.78780
O1124       O  0.16314197  0.77814922  0.57696573    -0.66360
Ni1125     Ni  0.19685194  0.70192084  0.71439075     1.34870
C1126       C  0.15748520  0.75568729  0.58793498     0.84740
O1127       O  0.18523219  0.76043359  0.76629903    -0.79320
O1128       O  0.19384165  0.71884096  0.77822076    -0.89600
C1129       C  0.18382412  0.81880160  0.68083306     0.84310
O1130       O  0.21634882  0.71866924  0.70778109    -0.67800
O1131       O  0.18959342  0.77943913  0.52544757    -0.87090
C1132       C  0.21990086  0.74285026  0.71389366     0.85140
C1133       C  0.18898963  0.74101427  0.79467869     1.06710
H1134       H  0.20320607  0.76877590  0.61891408     0.38510
O1135       O  0.19233076  0.76685213  0.62462281    -1.09740
O1136       O  0.16523986  0.73675813  0.60618462    -0.66400
Ni1137     Ni  0.18699376  0.73111623  0.61021923     1.26350
O1138       O  0.21037792  0.76168954  0.70972118    -0.66620
O1139       O  0.18846882  0.73530839  0.53831805    -0.78920
C1140       C  0.19137868  0.67678270  0.61860782     0.84530
O1141       O  0.18274089  0.69443721  0.60016417    -0.66090
Ni1142     Ni  0.18265471  0.79425748  0.58730370     1.27450
Ni1143     Ni  0.18879792  0.76474168  0.69570408     1.26060
H1144       H  0.17450520  0.72451807  0.68989847     0.39070
O1145       O  0.05273065  0.57277825  0.15621558    -0.80880
O1146       O  0.05759871  0.45142495  0.20008982    -0.65570
O1147       O  0.06719834  0.52471019  0.18192635    -1.12180
C1148       C  0.06133912  0.50380343  0.00801741     1.06000
O1149       O  0.07304611  0.44059901  0.13775211    -0.78780
O1150       O  0.08725697  0.47409539  0.07471342    -0.66360
Ni1151     Ni  0.05631834  0.55176474  0.21617390     1.34870
C1152       C  0.09393087  0.49553555  0.08681733     0.84740
O1153       O  0.06536853  0.49090274  0.26437575    -0.79320
O1154       O  0.05922788  0.53360920  0.27905794    -0.89600
C1155       C  0.06441785  0.43406134  0.17402163     0.84310
O1156       O  0.03611714  0.53709220  0.21219121    -0.67800
O1157       O  0.06098025  0.47943640  0.02068378    -0.87090
C1158       C  0.03173888  0.51310796  0.21588465     0.85140
C1159       C  0.06264054  0.51027140  0.29408570     1.06710
H1160       H  0.04754424  0.48831668  0.11620155     0.38510
O1161       O  0.05846784  0.48857701  0.12186419    -1.09740
O1162       O  0.08687751  0.51535822  0.10512507    -0.66400
Ni1163     Ni  0.06531809  0.52396320  0.11074471     1.26350
O1164       O  0.04052258  0.49358343  0.20749375    -0.66620
O1165       O  0.06331255  0.52277104  0.03886898    -0.78920
C1166       C  0.06215469  0.57775647  0.12079659     0.84530
O1167       O  0.07106142  0.56006754  0.10433715    -0.66090
Ni1168     Ni  0.06673891  0.46115211  0.08098736     1.27450
Ni1169     Ni  0.06197072  0.48856419  0.19322582     1.26060
H1170       H  0.07786306  0.52698252  0.19061698     0.39070
O1171       O  0.04801818  0.56899887  0.64871525    -0.80880
O1172       O  0.05989195  0.45025264  0.70726795    -0.65570
O1173       O  0.06488019  0.52443857  0.67909847    -1.12180
C1174       C  0.06041725  0.49383991  0.50894514     1.06000
O1175       O  0.07724578  0.44327911  0.64980335    -0.78780
O1176       O  0.08828001  0.47518690  0.57691249    -0.66360
Ni1177     Ni  0.05255137  0.55060579  0.71062847     1.34870
C1178       C  0.09324430  0.49841069  0.58553591     0.84740
O1179       O  0.06500580  0.49356018  0.76643009    -0.79320
O1180       O  0.05613301  0.53526225  0.77555457    -0.89600
C1181       C  0.06814448  0.43416749  0.68264490     0.84310
O1182       O  0.03346210  0.53223063  0.70766122    -0.67800
O1183       O  0.06180121  0.47038598  0.52623402    -0.87090
C1184       C  0.03046584  0.50783225  0.71475856     0.85140
C1185       C  0.06096690  0.51335661  0.79329734     1.06710
H1186       H  0.04789547  0.48144494  0.61886725     0.38510
O1187       O  0.05868582  0.48447786  0.62458946    -1.09740
O1188       O  0.08488447  0.51675504  0.60300166    -0.66400
Ni1189     Ni  0.06289311  0.52032463  0.60786441     1.26350
O1190       O  0.04027870  0.48964814  0.70861111    -0.66620
O1191       O  0.06095039  0.51473162  0.53624682    -0.78920
C1192       C  0.05738525  0.57452381  0.61357722     0.84530
O1193       O  0.06616672  0.55710227  0.59534391    -0.66090
Ni1194     Ni  0.06924035  0.45748147  0.58899842     1.27450
Ni1195     Ni  0.06196541  0.48792456  0.69572991     1.26060
H1196       H  0.07537288  0.52896517  0.68692738     0.39070
O1197       O  0.20476445  0.56681837  0.49737730    -0.80880
O1198       O  0.19476933  0.44839423  0.44111213    -0.65570
O1199       O  0.18837540  0.52203610  0.46618343    -1.12180
C1200       C  0.18747473  0.49179211  0.63664181     1.06000
O1201       O  0.17497000  0.44124639  0.49007710    -0.78780
O1202       O  0.16164722  0.47348051  0.55710806    -0.66360
Ni1203     Ni  0.20021806  0.54918084  0.43495902     1.34870
C1204       C  0.15770695  0.49737227  0.55075635     0.84740
O1205       O  0.19098920  0.49077321  0.37985922    -0.79320
O1206       O  0.19629880  0.53431988  0.36984368    -0.89600
C1207       C  0.18486171  0.43263173  0.45962620     0.84310
O1208       O  0.21963791  0.53207026  0.43620407    -0.67800
O1209       O  0.18581331  0.46856434  0.61876819    -0.87090
C1210       C  0.22359945  0.50788490  0.43753699     0.85140
C1211       C  0.19331997  0.51127228  0.35257693     1.06710
H1212       H  0.20358055  0.47889025  0.53233642     0.38510
O1213       O  0.19311116  0.48236904  0.52282636    -1.09740
O1214       O  0.16703496  0.51572246  0.53893340    -0.66400
Ni1215     Ni  0.18902900  0.51832315  0.53784325     1.26350
O1216       O  0.21421164  0.48890834  0.44613214    -0.66620
O1217       O  0.18927153  0.51268216  0.60963745    -0.78920
C1218       C  0.19493910  0.57265515  0.53071051     0.84530
O1219       O  0.18602030  0.55515714  0.54881825    -0.66090
Ni1220     Ni  0.18079885  0.45561528  0.55353702     1.27450
Ni1221     Ni  0.19215555  0.48578732  0.45121278     1.26060
H1222       H  0.17792715  0.52546377  0.45638044     0.39070
O1223       O  0.20018536  0.57141349  0.98506290    -0.80880
O1224       O  0.19581843  0.44892468  0.94684638    -0.65570
O1225       O  0.18573665  0.52210740  0.96397782    -1.12180
C1226       C  0.19172229  0.50192140  0.13736638     1.06000
O1227       O  0.17979615  0.43817097  0.00786813    -0.78780
O1228       O  0.16554510  0.47177014  0.06920522    -0.66360
Ni1229     Ni  0.19576745  0.54959026  0.92700723     1.34870
C1230       C  0.15964872  0.49426252  0.06165032     0.84740
O1231       O  0.18755136  0.48774868  0.88173458    -0.79320
O1232       O  0.19225295  0.53093257  0.86528562    -0.89600
C1233       C  0.18809035  0.43166164  0.97098439     0.84310
O1234       O  0.21605531  0.53605097  0.92888360    -0.67800
O1235       O  0.19086421  0.47755248  0.12495258    -0.87090
C1236       C  0.22109872  0.51250493  0.92877889     0.85140
C1237       C  0.18946541  0.50720533  0.85136528     1.06710
H1238       H  0.20575422  0.48549469  0.02979391     0.38510
O1239       O  0.19484388  0.48624869  0.02408203    -1.09740
O1240       O  0.16717607  0.51420849  0.04531264    -0.66400
Ni1241     Ni  0.18870449  0.52188719  0.03483406     1.26350
O1242       O  0.21275604  0.49242178  0.93935736    -0.66620
O1243       O  0.19195639  0.52093697  0.10589531    -0.78920
C1244       C  0.19171475  0.57609367  0.02279286     0.84530
O1245       O  0.18331228  0.55807589  0.04144583    -0.66090
Ni1246     Ni  0.18589060  0.45897179  0.06456311     1.27450
Ni1247     Ni  0.19125372  0.48604824  0.95300579     1.26060
H1248       H  0.17492652  0.52366955  0.95700170     0.39070
O1249       O  0.42559082  0.56269100  0.11872466    -0.80880
O1250       O  0.43550255  0.44790787  0.16931691    -0.65570
O1251       O  0.44363171  0.52083912  0.14533024    -1.12180
C1252       C  0.43928670  0.49477770  0.97439744     1.06000
O1253       O  0.45290702  0.43587934  0.11370021    -0.78780
O1254       O  0.46697540  0.47138851  0.04980094    -0.66360
Ni1255     Ni  0.43235350  0.54729513  0.17997508     1.34870
C1256       C  0.47156523  0.49536271  0.05008729     0.84740
O1257       O  0.44073692  0.48890552  0.23071243    -0.79320
O1258       O  0.43810042  0.53286820  0.24334578    -0.89600
C1259       C  0.44396360  0.43036043  0.15011488     0.84310
O1260       O  0.41298463  0.53020535  0.18498823    -0.67800
O1261       O  0.44213600  0.47139466  0.99039205    -0.87090
C1262       C  0.40841208  0.50673177  0.17739514     0.85140
C1263       C  0.43967947  0.50918820  0.25924771     1.06710
H1264       H  0.42620925  0.47959367  0.08037205     0.38510
O1265       O  0.43690290  0.48239081  0.08806492    -1.09740
O1266       O  0.46296683  0.51458916  0.06315707    -0.66400
Ni1267     Ni  0.44110038  0.51880295  0.07398857     1.26350
O1268       O  0.41720008  0.48807340  0.16444183    -0.66620
O1269       O  0.43821199  0.51495119  0.00310411    -0.78920
C1270       C  0.43510189  0.57234398  0.08794662     0.84530
O1271       O  0.44413298  0.55667535  0.06514918    -0.66090
Ni1272     Ni  0.44726089  0.45509418  0.05335724     1.27450
Ni1273     Ni  0.43906521  0.48473458  0.15924049     1.26060
H1274       H  0.45433443  0.52382306  0.15267828     0.39070
O1275       O  0.42795181  0.56468329  0.61551949    -0.80880
O1276       O  0.43454020  0.44714594  0.66858669    -0.65570
O1277       O  0.44335425  0.51958732  0.64427430    -1.12180
C1278       C  0.44088571  0.49284955  0.47323523     1.06000
O1279       O  0.45173806  0.43420390  0.61342770    -0.78780
O1280       O  0.46658520  0.46828026  0.55028254    -0.66360
Ni1281     Ni  0.43158868  0.54626381  0.67686247     1.34870
C1282       C  0.47150262  0.49197248  0.55263043     0.84740
O1283       O  0.44112127  0.48755814  0.72907137    -0.79320
O1284       O  0.43413882  0.52979133  0.74119641    -0.89600
C1285       C  0.44259103  0.42913919  0.64931710     0.84310
O1286       O  0.41190702  0.53060908  0.66992410    -0.67800
O1287       O  0.44233260  0.46914924  0.48922937    -0.87090
C1288       C  0.40760412  0.50663574  0.66957876     0.85140
C1289       C  0.43781451  0.50693265  0.75767771     1.06710
H1290       H  0.42548536  0.47890289  0.57932331     0.38510
O1291       O  0.43622977  0.48105241  0.58698290    -1.09740
O1292       O  0.46321005  0.51143066  0.56572083    -0.66400
Ni1293     Ni  0.44154128  0.51700154  0.57285950     1.26350
O1294       O  0.41677439  0.48732385  0.66625361    -0.66620
O1295       O  0.43968358  0.51309520  0.50166085    -0.78920
C1296       C  0.43837772  0.57135966  0.58501682     0.84530
O1297       O  0.44631063  0.55379328  0.56347695    -0.66090
Ni1298     Ni  0.44657751  0.45313162  0.55288652     1.27450
Ni1299     Ni  0.43861129  0.48357600  0.65819163     1.26060
H1300       H  0.45395729  0.52264531  0.65294106     0.39070
O1301       O  0.32607193  0.56140781  0.27401947    -0.80880
O1302       O  0.31879017  0.44658756  0.22573841    -0.65570
O1303       O  0.30887916  0.51820418  0.25141465    -1.12180
C1304       C  0.31541523  0.49235791  0.42164149     1.06000
O1305       O  0.30211039  0.43302973  0.28261105    -0.78780
O1306       O  0.28779544  0.46697019  0.34692260    -0.66360
Ni1307     Ni  0.31836431  0.54595111  0.21415723     1.34870
C1308       C  0.28304398  0.49069377  0.34838855     0.84740
O1309       O  0.31112561  0.48697086  0.16515293    -0.79320
O1310       O  0.31139352  0.53126171  0.15230353    -0.89600
C1311       C  0.31056101  0.42837431  0.24470769     0.84310
O1312       O  0.33799651  0.53105558  0.20270319    -0.67800
O1313       O  0.31273074  0.46886791  0.40572787    -0.87090
C1314       C  0.34367974  0.50841851  0.21037897     0.85140
C1315       C  0.31030971  0.50742974  0.13673094     1.06710
H1316       H  0.32837880  0.47822120  0.31335654     0.38510
O1317       O  0.31755634  0.48036958  0.30724968    -1.09740
O1318       O  0.29138527  0.51067433  0.33701677    -0.66400
Ni1319     Ni  0.31284151  0.51628345  0.32226249     1.26350
O1320       O  0.33593623  0.48902970  0.22755195    -0.66620
O1321       O  0.31675020  0.51244191  0.39260911    -0.78920
C1322       C  0.31685558  0.57013885  0.30647292     0.84530
O1323       O  0.30908827  0.55355092  0.33207524    -0.66090
Ni1324     Ni  0.30779507  0.45233747  0.34271582     1.27450
Ni1325     Ni  0.31427958  0.48285487  0.23646658     1.26060
H1326       H  0.29797303  0.51982747  0.24635634     0.39070
O1327       O  0.32590964  0.56062859  0.77422954    -0.80880
O1328       O  0.31905348  0.44453932  0.72959397    -0.65570
O1329       O  0.30865495  0.51633328  0.75326374    -1.12180
C1330       C  0.31145801  0.49108436  0.92269892     1.06000
O1331       O  0.30042451  0.43154159  0.78098228    -0.78780
O1332       O  0.28427956  0.46859359  0.83303132    -0.66360
Ni1333     Ni  0.31794750  0.54399964  0.71538679     1.34870
C1334       C  0.28086074  0.49263967  0.84111848     0.84740
O1335       O  0.31326048  0.48502748  0.66726624    -0.79320
O1336       O  0.31065032  0.52870673  0.65430334    -0.89600
C1337       C  0.30994893  0.42684170  0.74591296     0.84310
O1338       O  0.33751351  0.52862777  0.70382111    -0.67800
O1339       O  0.30620208  0.46905360  0.90603282    -0.87090
C1340       C  0.34360949  0.50676132  0.71582563     0.85140
C1341       C  0.31149770  0.50495740  0.63816864     1.06710
H1342       H  0.32645046  0.47438592  0.81937454     0.38510
O1343       O  0.31597438  0.47812360  0.81032585    -1.09740
O1344       O  0.29073378  0.51119597  0.83929658    -0.66400
Ni1345     Ni  0.31224330  0.51456181  0.82421430     1.26350
O1346       O  0.33615258  0.48778503  0.73593268    -0.66620
O1347       O  0.31580167  0.51028287  0.89447259    -0.78920
C1348       C  0.31706362  0.56882624  0.80839283     0.84530
O1349       O  0.30922629  0.55211244  0.83342675    -0.66090
Ni1350     Ni  0.30364262  0.45181708  0.84192828     1.27450
Ni1351     Ni  0.31442484  0.48095189  0.73916209     1.26060
H1352       H  0.29777049  0.51750142  0.74752116     0.39070
O1353       O  0.42464269  0.19361245  0.27519504    -0.80880
O1354       O  0.43510121  0.30814438  0.22218067    -0.65570
O1355       O  0.44253891  0.23542036  0.24733193    -1.12180
C1356       C  0.43998078  0.26236008  0.41766962     1.06000
O1357       O  0.45294614  0.32058531  0.27623080    -0.78780
O1358       O  0.46713280  0.28473967  0.33799632    -0.66360
Ni1359     Ni  0.43107665  0.20878876  0.21323788     1.34870
C1360       C  0.47113181  0.26054855  0.33860409     0.84740
O1361       O  0.44007198  0.26693557  0.16161494    -0.79320
O1362       O  0.43649829  0.22318034  0.14915061    -0.89600
C1363       C  0.44430930  0.32548925  0.23883981     0.84310
O1364       O  0.41176261  0.22557510  0.20923582    -0.67800
O1365       O  0.44309067  0.28559509  0.40132896    -0.87090
C1366       C  0.40741440  0.24912216  0.21614048     0.85140
C1367       C  0.43861102  0.24677064  0.13297649     1.06710
H1368       H  0.42577036  0.27749027  0.31231437     0.38510
O1369       O  0.43637379  0.27429202  0.30420458    -1.09740
O1370       O  0.46200493  0.24155204  0.32832379    -0.66400
Ni1371     Ni  0.44022058  0.23783376  0.31880870     1.26350
O1372       O  0.41639412  0.26800347  0.22772643    -0.66620
O1373       O  0.43790529  0.24202144  0.38991712    -0.78920
C1374       C  0.43430955  0.18424547  0.30540827     0.84530
O1375       O  0.44320660  0.20021919  0.32818976    -0.66090
Ni1376     Ni  0.44762347  0.30150418  0.33731071     1.27450
Ni1377     Ni  0.43832782  0.27141514  0.23297332     1.26060
H1378       H  0.45319956  0.23238918  0.23970494     0.39070
O1379       O  0.42670416  0.19278838  0.76315303    -0.80880
O1380       O  0.43215361  0.30921313  0.72601713    -0.65570
O1381       O  0.44323707  0.23767238  0.74524987    -1.12180
C1382       C  0.43866659  0.25964111  0.91696111     1.06000
O1383       O  0.45002629  0.32174686  0.78019885    -0.78780
O1384       O  0.46565556  0.28619824  0.83720795    -0.66360
Ni1385     Ni  0.43456018  0.21047238  0.70532628     1.34870
C1386       C  0.46999222  0.26226644  0.83891820     0.84740
O1387       O  0.43908343  0.27078315  0.66149100    -0.79320
O1388       O  0.44186280  0.22722034  0.64534956    -0.89600
C1389       C  0.44134817  0.32648156  0.74297620     0.84310
O1390       O  0.41474732  0.22496069  0.69405938    -0.67800
O1391       O  0.44210538  0.28303070  0.90207900    -0.87090
C1392       C  0.40834742  0.24649869  0.70593006     0.85140
C1393       C  0.44126616  0.25142135  0.63157314     1.06710
H1394       H  0.42422458  0.27638404  0.81265130     0.38510
O1395       O  0.43491349  0.27403821  0.80455656    -1.09740
O1396       O  0.46119205  0.24259106  0.83009527    -0.66400
Ni1397     Ni  0.43960063  0.23780302  0.81635283     1.26350
O1398       O  0.41547195  0.26543148  0.72730075    -0.66620
O1399       O  0.43602681  0.24020302  0.88730736    -0.78920
C1400       C  0.43554919  0.18404716  0.79686269     0.84530
O1401       O  0.44320465  0.20039899  0.82318002    -0.66090
Ni1402     Ni  0.44566689  0.30102041  0.83962446     1.27450
Ni1403     Ni  0.43709665  0.27298419  0.73337399     1.26060
H1404       H  0.45413945  0.23700472  0.73960175     0.39070
O1405       O  0.32347453  0.19095650  0.12246178    -0.80880
O1406       O  0.31837923  0.30915774  0.16331949    -0.65570
O1407       O  0.30781038  0.23676131  0.14597493    -1.12180
C1408       C  0.30971758  0.25967346  0.97306987     1.06000
O1409       O  0.30015108  0.32123263  0.11046128    -0.78780
O1410       O  0.28433936  0.28579522  0.05226709    -0.66360
Ni1411     Ni  0.31799239  0.20959375  0.18229824     1.34870
C1412       C  0.27943117  0.26210632  0.05541551     0.84740
O1413       O  0.31234715  0.27023935  0.22838383    -0.79320
O1414       O  0.31335301  0.22643640  0.24464402    -0.89600
C1415       C  0.30954620  0.32658978  0.14552776     0.84310
O1416       O  0.33798752  0.22455381  0.18467171    -0.67800
O1417       O  0.30780278  0.28349556  0.98775946    -0.87090
C1418       C  0.34341091  0.24733220  0.17497703     0.85140
C1419       C  0.31259715  0.25057781  0.25857484     1.06710
H1420       H  0.32562788  0.27568014  0.07566462     0.38510
O1421       O  0.31500490  0.27363823  0.08509021    -1.09740
O1422       O  0.28797940  0.24273988  0.06728919    -0.66400
Ni1423     Ni  0.30965884  0.23744705  0.07441754     1.26350
O1424       O  0.33536350  0.26670336  0.16016181    -0.66620
O1425       O  0.31146502  0.23992718  0.00272638    -0.78920
C1426       C  0.31372887  0.18348091  0.09020356     0.84530
O1427       O  0.30522481  0.20024009  0.06833672    -0.66090
Ni1428     Ni  0.30437046  0.30092247  0.05058410     1.27450
Ni1429     Ni  0.31362791  0.27259491  0.15653774     1.26060
H1430       H  0.29709300  0.23520835  0.15455144     0.39070
O1431       O  0.32419182  0.18975947  0.61671146    -0.80880
O1432       O  0.31680547  0.30592662  0.66879897    -0.65570
O1433       O  0.30771018  0.23338605  0.64455466    -1.12180
C1434       C  0.31075409  0.26046971  0.47366914     1.06000
O1435       O  0.29894936  0.31827527  0.61539958    -0.78780
O1436       O  0.28390330  0.28395025  0.55308099    -0.66360
Ni1437     Ni  0.31865181  0.20606272  0.67834630     1.34870
C1438       C  0.27929195  0.26002756  0.55450778     0.84740
O1439       O  0.31113892  0.26466531  0.73037692    -0.79320
O1440       O  0.31379148  0.22066006  0.74226796    -0.89600
C1441       C  0.30819448  0.32374089  0.65086004     0.84310
O1442       O  0.33845125  0.22210717  0.68094251    -0.67800
O1443       O  0.30814097  0.28387422  0.48970959    -0.87090
C1444       C  0.34324017  0.24563731  0.67471869     0.85140
C1445       C  0.31217392  0.24417184  0.75863803     1.06710
H1446       H  0.32524214  0.27477348  0.57896151     0.38510
O1447       O  0.31458158  0.27209740  0.58735273    -1.09740
O1448       O  0.28807631  0.24064952  0.56461553    -0.66400
Ni1449     Ni  0.30987129  0.23601880  0.57301855     1.26350
O1450       O  0.33458684  0.26485061  0.66339709    -0.66620
O1451       O  0.31228229  0.24022201  0.50199782    -0.78920
C1452       C  0.31405823  0.18203716  0.58615132     0.84530
O1453       O  0.30592023  0.19892417  0.56326857    -0.66090
Ni1454     Ni  0.30385204  0.29968215  0.55396979     1.27450
Ni1455     Ni  0.31274414  0.26923301  0.65873232     1.26060
H1456       H  0.29700976  0.23081168  0.65251579     0.39070
O1457       O  0.42489536  0.69259679  0.02298622    -0.80880
O1458       O  0.43270997  0.80872607  0.97244018    -0.65570
O1459       O  0.44221076  0.73693676  0.99789932    -1.12180
C1460       C  0.43806377  0.76411364  0.16784400     1.06000
O1461       O  0.45068601  0.82195878  0.02568222    -0.78780
O1462       O  0.46559339  0.78763217  0.08736221    -0.66360
Ni1463     Ni  0.43186441  0.70931875  0.96237806     1.34870
C1464       C  0.46987072  0.76372777  0.09065705     0.84740
O1465       O  0.43868469  0.76833933  0.91152458    -0.79320
O1466       O  0.43792432  0.72420998  0.89901806    -0.89600
C1467       C  0.44168685  0.82633260  0.98911270     0.84310
O1468       O  0.41214573  0.72484550  0.95537695    -0.67800
O1469       O  0.44176018  0.78708500  0.15133744    -0.87090
C1470       C  0.40696301  0.74775966  0.96409047     0.85140
C1471       C  0.43892491  0.74802455  0.88299270     1.06710
H1472       H  0.42433337  0.77847318  0.06209869     0.38510
O1473       O  0.43496893  0.77558628  0.05406372    -1.09740
O1474       O  0.46096555  0.74415562  0.08135629    -0.66400
Ni1475     Ni  0.43920086  0.73960259  0.06901198     1.26350
O1476       O  0.41522781  0.76707432  0.97834040    -0.66620
O1477       O  0.43584850  0.74400296  0.13952150    -0.78920
C1478       C  0.43378122  0.68567093  0.05809670     0.84530
O1479       O  0.44245754  0.70249265  0.07942050    -0.66090
Ni1480     Ni  0.44583096  0.80316572  0.08710604     1.27450
Ni1481     Ni  0.43698205  0.77252261  0.98304649     1.26060
H1482       H  0.45302140  0.73492710  0.99134931     0.39070
O1483       O  0.42636232  0.68998753  0.52268678    -0.80880
O1484       O  0.43294599  0.80774447  0.47135084    -0.65570
O1485       O  0.44191550  0.73565301  0.49729924    -1.12180
C1486       C  0.43600483  0.76156522  0.66815731     1.06000
O1487       O  0.44881559  0.82180330  0.53026507    -0.78780
O1488       O  0.46308953  0.78784660  0.59554517    -0.66360
Ni1489     Ni  0.43147929  0.70809400  0.46207396     1.34870
C1490       C  0.46840496  0.76448214  0.59284228     0.84740
O1491       O  0.44068650  0.76750631  0.41196662    -0.79320
O1492       O  0.43575356  0.72433093  0.39856126    -0.89600
C1493       C  0.44082571  0.82608853  0.49109230     0.84310
O1494       O  0.41145998  0.72251714  0.46212286    -0.67800
O1495       O  0.43762202  0.78540818  0.65268153    -0.87090
C1496       C  0.40661824  0.74606803  0.46381978     0.85140
C1497       C  0.43917276  0.74752618  0.38293633     1.06710
H1498       H  0.42258251  0.77521073  0.55924082     0.38510
O1499       O  0.43345762  0.77365901  0.55342268    -1.09740
O1500       O  0.46036744  0.74472245  0.57873717    -0.66400
Ni1501     Ni  0.43888249  0.73792544  0.56835464     1.26350
O1502       O  0.41526277  0.76606495  0.47120755    -0.66620
O1503       O  0.43585779  0.74137879  0.63933117    -0.78920
C1504       C  0.43621584  0.68356685  0.55514122     0.84530
O1505       O  0.44374242  0.70130667  0.57827206    -0.66090
Ni1506     Ni  0.44288823  0.80197677  0.58976110     1.27450
Ni1507     Ni  0.43698082  0.77134495  0.48254253     1.26060
H1508       H  0.45270763  0.73340816  0.49069878     0.39070
O1509       O  0.32402232  0.69117487  0.36757361    -0.80880
O1510       O  0.31715434  0.80740092  0.41232068    -0.65570
O1511       O  0.30692851  0.73555913  0.38825516    -1.12180
C1512       C  0.31298586  0.76031480  0.21812636     1.06000
O1513       O  0.30027291  0.82060720  0.35540522    -0.78780
O1514       O  0.28557849  0.78594674  0.29323294    -0.66360
Ni1515     Ni  0.31604433  0.70793298  0.42611992     1.34870
C1516       C  0.28095270  0.76207819  0.29201715     0.84740
O1517       O  0.30992094  0.76709216  0.47407620    -0.79320
O1518       O  0.30847613  0.72299624  0.48657719    -0.89600
C1519       C  0.30857936  0.82503824  0.39376796     0.84310
O1520       O  0.33573660  0.72341452  0.43894362    -0.67800
O1521       O  0.31021099  0.78386204  0.23309470    -0.87090
C1522       C  0.34169217  0.74585355  0.42912278     0.85140
C1523       C  0.30823862  0.74678790  0.50255346     1.06710
H1524       H  0.32631250  0.77571032  0.32489488     0.38510
O1525       O  0.31551989  0.77332562  0.33160085    -1.09740
O1526       O  0.28931630  0.74232904  0.30335226    -0.66400
Ni1527     Ni  0.31082017  0.73724493  0.31775685     1.26350
O1528       O  0.33421266  0.76482807  0.40988105    -0.66620
O1529       O  0.31480575  0.74058486  0.24755651    -0.78920
C1530       C  0.31527401  0.68352904  0.33254683     0.84530
O1531       O  0.30708179  0.70005288  0.30885281    -0.66090
Ni1532     Ni  0.30562910  0.80088060  0.29574759     1.27450
Ni1533     Ni  0.31257648  0.77100051  0.40248466     1.26060
H1534       H  0.29600729  0.73403164  0.39339338     0.39070
O1535       O  0.32480130  0.69048607  0.86360034    -0.80880
O1536       O  0.31698664  0.80702318  0.91229594    -0.65570
O1537       O  0.30765029  0.73442997  0.88866004    -1.12180
C1538       C  0.31055057  0.76058874  0.71807296     1.06000
O1539       O  0.29915887  0.81967906  0.85884959    -0.78780
O1540       O  0.28370925  0.78409213  0.80092183    -0.66360
Ni1541     Ni  0.31817121  0.70721489  0.92407614     1.34870
C1542       C  0.27960254  0.75994858  0.79877793     0.84740
O1543       O  0.31127218  0.76630526  0.97367133    -0.79320
O1544       O  0.31266180  0.72235052  0.98715824    -0.89600
C1545       C  0.30839378  0.82486800  0.89448783     0.84310
O1546       O  0.33781447  0.72322143  0.92955322    -0.67800
O1547       O  0.30716590  0.78360297  0.73451181    -0.87090
C1548       C  0.34294196  0.74627122  0.92074956     0.85140
C1549       C  0.31182295  0.74619543  0.00277369     1.06710
H1550       H  0.32522666  0.77598502  0.82262324     0.38510
O1551       O  0.31461039  0.77294134  0.83118219    -1.09740
O1552       O  0.28858367  0.74059427  0.80654016    -0.66400
Ni1553     Ni  0.31025912  0.73656027  0.81744444     1.26350
O1554       O  0.33465217  0.76543957  0.90643975    -0.66620
O1555       O  0.31291970  0.74063330  0.74661151    -0.78920
C1556       C  0.31559470  0.68260191  0.83013828     0.84530
O1557       O  0.30681326  0.69902668  0.80841085    -0.66090
Ni1558     Ni  0.30351178  0.80013879  0.79819864     1.27450
Ni1559     Ni  0.31280965  0.77032976  0.90229373     1.26060
H1560       H  0.29688293  0.73212752  0.89590061     0.39070
O1561       O  0.42678856  0.06322113  0.36336371    -0.80880
O1562       O  0.43496530  0.94583430  0.41281372    -0.65570
O1563       O  0.44316103  0.01877493  0.39033943    -1.12180
C1564       C  0.43862545  0.99371931  0.21890002     1.06000
O1565       O  0.45179958  0.93353815  0.35529808    -0.78780
O1566       O  0.46553988  0.96866727  0.29016152    -0.66360
Ni1567     Ni  0.43182390  0.04532424  0.42433397     1.34870
C1568       C  0.47066364  0.99210734  0.29543594     0.84740
O1569       O  0.44114077  0.98615827  0.47445998    -0.79320
O1570       O  0.43581537  0.02910691  0.48783418    -0.89600
C1571       C  0.44359373  0.92852740  0.39372864     0.84310
O1572       O  0.41216710  0.02921460  0.42326512    -0.67800
O1573       O  0.44010980  0.96978949  0.23383146    -0.87090
C1574       C  0.40774868  0.00534327  0.42039509     0.85140
C1575       C  0.43880942  0.00579390  0.50358930     1.06710
H1576       H  0.42511137  0.97891883  0.32511708     0.38510
O1577       O  0.43587678  0.98082581  0.33228786    -1.09740
O1578       O  0.46268598  0.01141876  0.31114314    -0.66400
Ni1579     Ni  0.44103771  0.01697688  0.31914406     1.26350
O1580       O  0.41671589  0.98615493  0.41195267    -0.66620
O1581       O  0.43875374  0.01382511  0.24793856    -0.78920
C1582       C  0.43679599  0.07084020  0.33213442     0.84530
O1583       O  0.44543464  0.05411578  0.31091019    -0.66090
Ni1584     Ni  0.44563908  0.95315690  0.29605487     1.27450
Ni1585     Ni  0.43855929  0.98263053  0.40336146     1.26060
H1586       H  0.45381219  0.02171698  0.39847929     0.39070
O1587       O  0.42584441  0.06450678  0.86574424    -0.80880
O1588       O  0.43251062  0.94776754  0.91499408    -0.65570
O1589       O  0.44242415  0.01971987  0.89032153    -1.12180
C1590       C  0.43848463  0.99329350  0.72022142     1.06000
O1591       O  0.45008244  0.93453040  0.86134427    -0.78780
O1592       O  0.46530433  0.96908617  0.79990312    -0.66360
Ni1593     Ni  0.43231945  0.04728447  0.92606557     1.34870
C1594       C  0.46975869  0.99304642  0.79866970     0.84740
O1595       O  0.43912277  0.98806054  0.97607231    -0.79320
O1596       O  0.43810737  0.03213155  0.98906501    -0.89600
C1597       C  0.44115132  0.92987241  0.89817220     0.84310
O1598       O  0.41242934  0.03171677  0.93237475    -0.67800
O1599       O  0.44154215  0.97008459  0.73656931    -0.87090
C1600       C  0.40709838  0.00867526  0.92431280     0.85140
C1601       C  0.43942224  0.00835331  0.00468952     1.06710
H1602       H  0.42409866  0.97858637  0.82591312     0.38510
O1603       O  0.43477326  0.98126623  0.83382171    -1.09740
O1604       O  0.46100945  0.01257697  0.80764202    -0.66400
Ni1605     Ni  0.43938614  0.01726615  0.81934485     1.26350
O1606       O  0.41530977  0.98940612  0.91037966    -0.66620
O1607       O  0.43616751  0.01315123  0.74881538    -0.78920
C1608       C  0.43504067  0.07128743  0.83122393     0.84530
O1609       O  0.44324496  0.05424201  0.80923495    -0.66090
Ni1610     Ni  0.44537775  0.95368865  0.80036623     1.27450
Ni1611     Ni  0.43702783  0.98405972  0.90470227     1.26060
H1612       H  0.45324619  0.02175251  0.89685810     0.39070
O1613       O  0.32467618  0.06295241  0.01824325    -0.80880
O1614       O  0.31567989  0.94650996  0.96810989    -0.65570
O1615       O  0.30738240  0.01910488  0.99314241    -1.12180
C1616       C  0.31057185  0.99290985  0.16378085     1.06000
O1617       O  0.29856666  0.93310692  0.02427072    -0.78780
O1618       O  0.28367633  0.96894442  0.08332439    -0.66360
Ni1619     Ni  0.31826948  0.04619018  0.95766245     1.34870
C1620       C  0.27962580  0.99305313  0.08584971     0.84740
O1621       O  0.30953489  0.98731835  0.90755545    -0.79320
O1622       O  0.31294783  0.03096794  0.89429020    -0.89600
C1623       C  0.30699387  0.92873673  0.98624930     0.84310
O1624       O  0.33789168  0.03042159  0.95464552    -0.67800
O1625       O  0.30742847  0.96971293  0.14763171    -0.87090
C1626       C  0.34259027  0.00706915  0.96165708     0.85140
C1627       C  0.31037270  0.00751276  0.87856479     1.06710
H1628       H  0.32508681  0.97751416  0.05742659     0.38510
O1629       O  0.31440923  0.98042983  0.04994437    -1.09740
O1630       O  0.28860739  0.01239113  0.07616598    -0.66400
Ni1631     Ni  0.31026879  0.01679804  0.06431655     1.26350
O1632       O  0.33383835  0.98763392  0.97213179    -0.66620
O1633       O  0.31319177  0.01283248  0.13520029    -0.78920
C1634       C  0.31543148  0.07095154  0.05125029     0.84530
O1635       O  0.30689406  0.05423081  0.07375134    -0.66090
Ni1636     Ni  0.30343200  0.95308887  0.08421192     1.27450
Ni1637     Ni  0.31197204  0.98315755  0.97879870     1.26060
H1638       H  0.29662859  0.02171110  0.98641305     0.39070
O1639       O  0.32554348  0.06238771  0.52054482    -0.80880
O1640       O  0.31721053  0.94674464  0.46736438    -0.65570
O1641       O  0.30854706  0.01883386  0.49352502    -1.12180
C1642       C  0.31161529  0.99115178  0.66346460     1.06000
O1643       O  0.29964098  0.93286281  0.52119117    -0.78780
O1644       O  0.28434122  0.96811371  0.58007562    -0.66360
Ni1645     Ni  0.31964960  0.04618255  0.45914801     1.34870
C1646       C  0.28039224  0.99221054  0.58349607     0.84740
O1647       O  0.31153978  0.98771109  0.40710181    -0.79320
O1648       O  0.31470467  0.03159200  0.39506320    -0.89600
C1649       C  0.30862123  0.92862107  0.48441453     0.84310
O1650       O  0.33930737  0.03025045  0.45664699    -0.67800
O1651       O  0.30756941  0.96843670  0.64678118    -0.87090
C1652       C  0.34387313  0.00673005  0.46297402     0.85140
C1653       C  0.31286174  0.00807463  0.37873606     1.06710
H1654       H  0.32597123  0.97648021  0.55759871     0.38510
O1655       O  0.31535170  0.97963836  0.54959377    -1.09740
O1656       O  0.28961499  0.01152868  0.57637959    -0.66400
Ni1657     Ni  0.31132471  0.01578795  0.56483536     1.26350
O1658       O  0.33506241  0.98744592  0.47335344    -0.66620
O1659       O  0.31443504  0.01112509  0.63528239    -0.78920
C1660       C  0.31568324  0.06994685  0.55186358     0.84530
O1661       O  0.30781120  0.05286717  0.57569097    -0.66090
Ni1662     Ni  0.30403250  0.95221446  0.58238745     1.27450
Ni1663     Ni  0.31327315  0.98304815  0.47850721     1.26060
H1664       H  0.29781026  0.02147522  0.48656048     0.39070
C1665       C  0.30887792  0.02020152  0.73771283    -0.12260
C1666       C  0.31209937  0.99492686  0.71863681     0.04750
C1667       C  0.31393162  0.97354161  0.75261271    -0.07550
C1668       C  0.31236178  0.97800163  0.80427151    -0.08290
C1669       C  0.30929864  0.00335918  0.82343805    -0.02840
C1670       C  0.30724096  0.02464266  0.78928676     0.03970
N1671       N  0.30296976  0.05065230  0.80581519     0.66480
H1672       H  0.30690398  0.03655222  0.71212178     0.15380
H1673       H  0.31432445  0.96162262  0.82978486     0.15090
N1674       N  0.31802706  0.94747856  0.73582256     0.74180
O1675       O  0.30886658  0.07090715  0.78544378    -0.39270
O1676       O  0.29165360  0.05346124  0.83476212    -0.39210
O1677       O  0.32888125  0.94457115  0.70506702    -0.39910
O1678       O  0.31240725  0.92726896  0.75716347    -0.39980
C1679       C  0.30299001  0.98467872  0.30365593    -0.12260
C1680       C  0.31255670  0.00430640  0.32376448     0.04750
C1681       C  0.32153942  0.02021758  0.29092681    -0.07550
C1682       C  0.32041332  0.01642868  0.23900104    -0.08290
C1683       C  0.31084498  0.99678667  0.21883358    -0.02840
C1684       C  0.30178575  0.98101697  0.25174571     0.03970
N1685       N  0.29069732  0.96227045  0.23337112     0.66480
H1686       H  0.29589740  0.97278042  0.32848193     0.15380
H1687       H  0.32751479  0.02833558  0.21422915     0.15090
N1688       N  0.33240824  0.03934333  0.30940808     0.74180
O1689       O  0.28900117  0.94018848  0.25513077    -0.39270
O1690       O  0.28084188  0.96949216  0.20164113    -0.39210
O1691       O  0.34179995  0.03290191  0.34318491    -0.39910
O1692       O  0.33432740  0.06104600  0.28649877    -0.39980
C1693       C  0.38529331  0.01125863  0.98256168    -0.12260
C1694       C  0.39069977  0.00408749  0.93492278     0.04750
C1695       C  0.38023915  0.99486094  0.89846164    -0.07550
C1696       C  0.36454790  0.99455876  0.90973734    -0.08290
C1697       C  0.35911420  0.00276142  0.95667381    -0.02840
C1698       C  0.36960465  0.01060854  0.99447045     0.03970
N1699       N  0.36472712  0.01835993  0.04426612     0.66480
H1700       H  0.39347701  0.01793313  0.01041515     0.15380
H1701       H  0.35643197  0.98875488  0.88096105     0.15090
N1702       N  0.38513475  0.98742142  0.84907997     0.74180
O1703       O  0.37448597  0.02554956  0.07650149    -0.39270
O1704       O  0.35088722  0.01671076  0.05760534    -0.39210
O1705       O  0.39512658  0.96971544  0.84370965    -0.39910
O1706       O  0.37756534  0.99480958  0.81127501    -0.39980
C1707       C  0.43848614  0.97442491  0.63397826    -0.12260
C1708       C  0.43822520  0.99702101  0.66491003     0.04750
C1709       C  0.43846876  0.02235348  0.64204603    -0.07550
C1710       C  0.43881232  0.02438516  0.58978598    -0.08290
C1711       C  0.43904887  0.00182576  0.55882852    -0.02840
C1712       C  0.43874768  0.97646893  0.58161007     0.03970
N1713       N  0.43810659  0.95256367  0.55267661     0.66480
H1714       H  0.43818613  0.95477588  0.65045459     0.15380
H1715       H  0.43911973  0.04406163  0.57342515     0.15090
N1716       N  0.43884244  0.04632462  0.67078599     0.74180
O1717       O  0.44755518  0.93428022  0.56126467    -0.39270
O1718       O  0.42641531  0.94758558  0.52644882    -0.39210
O1719       O  0.45060531  0.05201965  0.69612014    -0.39910
O1720       O  0.42906624  0.06410638  0.66240264    -0.39980
C1721       C  0.44679318  0.01861703  0.14359915    -0.12260
C1722       C  0.43768349  0.99834938  0.16438787     0.04750
C1723       C  0.42955068  0.98101402  0.13232354    -0.07550
C1724       C  0.43102758  0.98412322  0.08030869    -0.08290
C1725       C  0.44027150  0.00412795  0.05940535    -0.02840
C1726       C  0.44833898  0.02160012  0.09148619     0.03970
N1727       N  0.45852950  0.04169203  0.07207548     0.66480
H1728       H  0.45339474  0.03138310  0.16819843     0.15380
H1729       H  0.42422174  0.97171395  0.05587647     0.15090
N1730       N  0.41932311  0.96095827  0.15169096     0.74180
O1731       O  0.46070915  0.06288740  0.09621862    -0.39270
O1732       O  0.46674599  0.03706960  0.03414340    -0.39210
O1733       O  0.41118869  0.96553122  0.18983786    -0.39910
O1734       O  0.41704934  0.93984425  0.12738159    -0.39980
C1735       C  0.38674636  0.00674181  0.48094801    -0.12260
C1736       C  0.39157334  0.00006452  0.43237849     0.04750
C1737       C  0.38065419  0.99249047  0.39607048    -0.07550
C1738       C  0.36507143  0.99341579  0.40873023    -0.08290
C1739       C  0.36023881  0.00168955  0.45636355    -0.02840
C1740       C  0.37117007  0.00766874  0.49392582     0.03970
N1741       N  0.36690208  0.01511804  0.54448584     0.66480
H1742       H  0.39531064  0.01236219  0.50841719     0.15380
H1743       H  0.35656561  0.98851381  0.38059103     0.15090
N1744       N  0.38501220  0.98533477  0.34588318     0.74180
O1745       O  0.37707999  0.01838679  0.57756608    -0.39270
O1746       O  0.35307512  0.01769490  0.55722625    -0.39210
O1747       O  0.39647045  0.97077531  0.33847848    -0.39910
O1748       O  0.37628353  0.99052637  0.30947013    -0.39980
C1749       C  0.29502190  0.86709980  0.91378149    -0.12260
C1750       C  0.30837965  0.85176637  0.91718742     0.04750
C1751       C  0.32127438  0.86238060  0.94251268    -0.07550
C1752       C  0.32020407  0.88730969  0.96542798    -0.08290
C1753       C  0.30677462  0.90230064  0.96282454    -0.02840
C1754       C  0.29399880  0.89227839  0.93605165     0.03970
N1755       N  0.28021863  0.90746062  0.92906310     0.66480
H1756       H  0.28514490  0.85921949  0.89414685     0.15380
H1757       H  0.33011635  0.89543185  0.98458529     0.15090
N1758       N  0.33573324  0.84893883  0.94323416     0.74180
O1759       O  0.27213286  0.90401202  0.89034488    -0.39270
O1760       O  0.27535900  0.92273319  0.96283516    -0.39210
O1761       O  0.34131336  0.83999359  0.90303007    -0.39910
O1762       O  0.34408313  0.85002093  0.98182236    -0.39980
C1763       C  0.31279257  0.72964382  0.58822697    -0.12260
C1764       C  0.30735329  0.75034660  0.55768355     0.04750
C1765       C  0.30333084  0.77460090  0.58022297    -0.07550
C1766       C  0.30514931  0.77766706  0.63212228    -0.08290
C1767       C  0.31077489  0.75703468  0.66268466    -0.02840
C1768       C  0.31488292  0.73283613  0.63983884     0.03970
N1769       N  0.32186355  0.71172408  0.66759355     0.66480
H1770       H  0.31643552  0.71117708  0.57146785     0.15380
H1771       H  0.30158746  0.79619258  0.64878156     0.15090
N1772       N  0.29677067  0.79583046  0.55162663     0.74180
O1773       O  0.31741610  0.68812039  0.66109354    -0.39270
O1774       O  0.33418819  0.71597863  0.69101748    -0.39210
O1775       O  0.28584115  0.79113173  0.52195038    -0.39910
O1776       O  0.30029501  0.81958976  0.56127516    -0.39980
C1777       C  0.31738799  0.77708618  0.13174283    -0.12260
C1778       C  0.31330646  0.75587424  0.16332459     0.04750
C1779       C  0.30856340  0.73159305  0.14168067    -0.07550
C1780       C  0.30811668  0.72916106  0.08944425    -0.08290
C1781       C  0.31209884  0.75042014  0.05776687    -0.02840
C1782       C  0.31709279  0.77457590  0.07947714     0.03970
N1783       N  0.32266085  0.79626920  0.04953150     0.66480
H1784       H  0.32121452  0.79568773  0.14784685     0.15380
H1785       H  0.30423122  0.71055138  0.07354018     0.15090
N1786       N  0.30335900  0.70966880  0.17171130     0.74180
O1787       O  0.31825643  0.81955071  0.05866955    -0.39270
O1788       O  0.33396196  0.79292047  0.02074203    -0.39210
O1789       O  0.29213383  0.71253130  0.20100194    -0.39910
O1790       O  0.30807337  0.68659071  0.16241430    -0.39980
C1791       C  0.32164549  0.86586677  0.41929997    -0.12260
C1792       C  0.30803056  0.85112728  0.41784704     0.04750
C1793       C  0.29435944  0.86201464  0.43746103    -0.07550
C1794       C  0.29494373  0.88745695  0.45889508    -0.08290
C1795       C  0.30857200  0.90237599  0.45981290    -0.02840
C1796       C  0.32199999  0.89152906  0.43879640     0.03970
N1797       N  0.33615042  0.90602376  0.43744182     0.66480
H1798       H  0.33204016  0.85764580  0.40362592     0.15380
H1799       H  0.28465257  0.89577743  0.47499312     0.15090
N1800       N  0.27997264  0.84772196  0.43690742     0.74180
O1801       O  0.34779992  0.89656419  0.45877458    -0.39270
O1802       O  0.33788152  0.92447146  0.40582490    -0.39210
O1803       O  0.27956170  0.82273760  0.43495631    -0.39910
O1804       O  0.26752278  0.86003918  0.44180683    -0.39980
C1805       C  0.45427473  0.86895619  0.47369478    -0.12260
C1806       C  0.44139463  0.85252882  0.46636564     0.04750
C1807       C  0.42952752  0.86137049  0.43435342    -0.07550
C1808       C  0.43105443  0.88578541  0.40970552    -0.08290
C1809       C  0.44391838  0.90202760  0.41683059    -0.02840
C1810       C  0.45574624  0.89369909  0.44948194     0.03970
N1811       N  0.46901138  0.91004458  0.45971532     0.66480
H1812       H  0.46340162  0.86226293  0.49801130     0.15380
H1813       H  0.42180780  0.89265285  0.38597468     0.15090
N1814       N  0.41552427  0.84662600  0.42835183     0.74180
O1815       O  0.47672129  0.90639150  0.49915799    -0.39270
O1816       O  0.47370791  0.92702877  0.42837215    -0.39210
O1817       O  0.40803530  0.83923873  0.46648385    -0.39910
O1818       O  0.40939911  0.84477942  0.38560937    -0.39980
C1819       C  0.38012408  0.74153010  0.49443816    -0.12260
C1820       C  0.39007029  0.74987693  0.45630907     0.04750
C1821       C  0.38397564  0.75939899  0.41051553    -0.07550
C1822       C  0.36800615  0.75953436  0.40366598    -0.08290
C1823       C  0.35810175  0.74981639  0.44092255    -0.02840
C1824       C  0.36420668  0.74183527  0.48768290     0.03970
N1825       N  0.35439207  0.73499112  0.52906437     0.66480
H1826       H  0.38482985  0.73477353  0.52980800     0.15380
H1827       H  0.36333517  0.76562427  0.36782463     0.15090
N1828       N  0.39372372  0.76729436  0.36958369     0.74180
O1829       O  0.35861504  0.71815093  0.56122709    -0.39270
O1830       O  0.34271593  0.74879345  0.53797018    -0.39210
O1831       O  0.40526484  0.75363132  0.35836173    -0.39910
O1832       O  0.38957186  0.78545846  0.34001233    -0.39980
C1833       C  0.44524182  0.73785348  0.74331653    -0.12260
C1834       C  0.43547712  0.75711730  0.72301053     0.04750
C1835       C  0.42730240  0.77396512  0.75568441    -0.07550
C1836       C  0.42943516  0.77144359  0.80772927    -0.08290
C1837       C  0.43924986  0.75224862  0.82803834    -0.02840
C1838       C  0.44740526  0.73538605  0.79534478     0.03970
N1839       N  0.45840446  0.71664319  0.81399577     0.66480
H1840       H  0.45189156  0.72555919  0.71823311     0.15380
H1841       H  0.42278173  0.78372605  0.83281446     0.15090
N1842       N  0.41636390  0.79281306  0.73698079     0.74180
O1843       O  0.46135642  0.69596578  0.78929841    -0.39270
O1844       O  0.46657466  0.72223285  0.85161895    -0.39210
O1845       O  0.40846951  0.78759303  0.69854953    -0.39910
O1846       O  0.41321329  0.81323335  0.76217360    -0.39980
C1847       C  0.44011188  0.73479266  0.24229816    -0.12260
C1848       C  0.43735334  0.76025011  0.22306334     0.04750
C1849       C  0.43590947  0.78169741  0.25699429    -0.07550
C1850       C  0.43759761  0.77717630  0.30860387    -0.08290
C1851       C  0.44028499  0.75167809  0.32783579    -0.02840
C1852       C  0.44177360  0.73026242  0.29384962     0.03970
N1853       N  0.44544837  0.70396455  0.31054718     0.66480
H1854       H  0.44170552  0.71830867  0.21686859     0.15380
H1855       H  0.43594439  0.79362328  0.33407902     0.15090
N1856       N  0.43207423  0.80791730  0.24025242     0.74180
O1857       O  0.43901489  0.68413460  0.29061617    -0.39270
O1858       O  0.45665960  0.70035044  0.33957557    -0.39210
O1859       O  0.42094226  0.81126857  0.21078437    -0.39910
O1860       O  0.43816207  0.82788383  0.26083524    -0.39980
C1861       C  0.43030188  0.86984883  0.97755741    -0.12260
C1862       C  0.44189233  0.85221083  0.96471534     0.04750
C1863       C  0.45332074  0.85973076  0.92988718    -0.07550
C1864       C  0.45290481  0.88542190  0.90954494    -0.08290
C1865       C  0.44133230  0.90344159  0.92266617    -0.02840
C1866       C  0.42991134  0.89533575  0.95731365     0.03970
N1867       N  0.41781038  0.91251725  0.97257891     0.66480
H1868       H  0.42156486  0.86387771  0.00429723     0.15380
H1869       H  0.46159240  0.89124479  0.88262458     0.15090
N1870       N  0.46514977  0.84169795  0.91410625     0.74180
O1871       O  0.40408393  0.90567948  0.96503245    -0.39270
O1872       O  0.42063266  0.93079042  0.00347621    -0.39210
O1873       O  0.46292960  0.81694544  0.91467555    -0.39910
O1874       O  0.47742458  0.85054956  0.89522326    -0.39980
C1875       C  0.38583957  0.75439146  0.90482229    -0.12260
C1876       C  0.39059392  0.75210086  0.95494784     0.04750
C1877       C  0.37957996  0.75034169  0.99368686    -0.07550
C1878       C  0.36403561  0.74962986  0.98054726    -0.08290
C1879       C  0.35928499  0.75076789  0.93034132    -0.02840
C1880       C  0.37025826  0.75363732  0.89163558     0.03970
N1881       N  0.36603706  0.75449830  0.83926993     0.66480
H1882       H  0.39444603  0.75538813  0.87553825     0.15380
H1883       H  0.35545899  0.74757486  0.00974557     0.15090
N1884       N  0.38383700  0.74812328  0.04583715     0.74180
O1885       O  0.37526183  0.76388164  0.80723360    -0.39270
O1886       O  0.35368994  0.74418593  0.82402683    -0.39210
O1887       O  0.39630806  0.75770909  0.06156440    -0.39910
O1888       O  0.37451106  0.73857114  0.07737840    -0.39980
C1889       C  0.31204371  0.14376375  0.52877643    -0.12260
C1890       C  0.31213676  0.15341333  0.57787107     0.04750
C1891       C  0.31208172  0.13538510  0.61878158    -0.07550
C1892       C  0.31284874  0.10808740  0.60935979    -0.08290
C1893       C  0.31376376  0.09853687  0.56027755    -0.02840
C1894       C  0.31307726  0.11655147  0.51955204     0.03970
N1895       N  0.31332187  0.10758959  0.46861737     0.66480
H1896       H  0.31200857  0.15748335  0.49741314     0.15380
H1897       H  0.31300327  0.09423555  0.64049654     0.15090
N1898       N  0.31107068  0.14442679  0.66983263     0.74180
O1899       O  0.30203050  0.11228840  0.44054183    -0.39270
O1900       O  0.32583865  0.10071925  0.44904976    -0.39210
O1901       O  0.30228818  0.16328048  0.68109887    -0.39910
O1902       O  0.31746708  0.13157936  0.70461265    -0.39980
C1903       C  0.30144974  0.11114926  0.08110327    -0.12260
C1904       C  0.31493879  0.09977117  0.06243657     0.04750
C1905       C  0.32749097  0.11656690  0.05078233    -0.07550
C1906       C  0.32646601  0.14379566  0.05877528    -0.08290
C1907       C  0.31309276  0.15513628  0.07761927    -0.02840
C1908       C  0.30031540  0.13871156  0.08908110     0.03970
N1909       N  0.28637399  0.14927012  0.10984019     0.66480
H1910       H  0.29172841  0.09849353  0.08943661     0.15380
H1911       H  0.33633558  0.15624372  0.05067545     0.15090
N1912       N  0.34154123  0.10630209  0.03160080     0.74180
O1913       O  0.27386397  0.13697173  0.10408802    -0.39270
O1914       O  0.28661572  0.16948782  0.13764971    -0.39210
O1915       O  0.34441047  0.10797872  0.98529163    -0.39910
O1916       O  0.35193270  0.09924009  0.06153800    -0.39980
C1917       C  0.30186039  0.26667842  0.83357260    -0.12260
C1918       C  0.31173158  0.24767916  0.81360051     0.04750
C1919       C  0.32063401  0.23186187  0.84661298    -0.07550
C1920       C  0.31940903  0.23572255  0.89851222    -0.08290
C1921       C  0.30968742  0.25497769  0.91837225    -0.02840
C1922       C  0.30041239  0.27007988  0.88546972     0.03970
N1923       N  0.28884194  0.28769935  0.90395091     0.66480
H1924       H  0.29469088  0.27815838  0.80858412     0.15380
H1925       H  0.32654928  0.22422528  0.92355663     0.15090
N1926       N  0.33136225  0.21254422  0.82856899     0.74180
O1927       O  0.28582650  0.30875905  0.88036504    -0.39270
O1928       O  0.27987171  0.28008057  0.93827635    -0.39210
O1929       O  0.33358705  0.19152080  0.85323290    -0.39910
O1930       O  0.34028332  0.21812232  0.79278431    -0.39980
C1931       C  0.30128872  0.24029031  0.34052623    -0.12260
C1932       C  0.31186120  0.25537509  0.31299952     0.04750
C1933       C  0.32270735  0.27131595  0.33883149    -0.07550
C1934       C  0.32225335  0.27217666  0.39152026    -0.08290
C1935       C  0.31168824  0.25688867  0.41889636    -0.02840
C1936       C  0.30118077  0.24053007  0.39295760     0.03970
N1937       N  0.29009582  0.22444218  0.41874276     0.66480
H1938       H  0.29325568  0.22753868  0.32090657     0.15380
H1939       H  0.33030069  0.28476498  0.41141181     0.15090
N1940       N  0.33481383  0.28525842  0.31312022     0.74180
O1941       O  0.27663394  0.22289943  0.40179255    -0.39270
O1942       O  0.29448308  0.20734369  0.45011343    -0.39210
O1943       O  0.33189949  0.30008196  0.27622693    -0.39910
O1944       O  0.34805930  0.28603658  0.33202728    -0.39980
C1945       C  0.44707013  0.11489152  0.84088292    -0.12260
C1946       C  0.43587316  0.09930075  0.81727018     0.04750
C1947       C  0.42492378  0.11126720  0.78565660    -0.07550
C1948       C  0.42535036  0.13892304  0.78004562    -0.08290
C1949       C  0.43633837  0.15488460  0.80457494    -0.02840
C1950       C  0.44763038  0.14246837  0.83434067     0.03970
N1951       N  0.45990209  0.15715744  0.85715317     0.66480
H1952       H  0.45548021  0.10544569  0.86476304     0.15380
H1953       H  0.41674048  0.14814999  0.75674743     0.15090
N1954       N  0.41339609  0.09612900  0.75896230     0.74180
O1955       O  0.46396830  0.15175261  0.90142801    -0.39270
O1956       O  0.46855285  0.17144891  0.83028232    -0.39210
O1957       O  0.41003338  0.07264160  0.77134333    -0.39910
O1958       O  0.40628619  0.10646715  0.72269397    -0.39980
C1959       C  0.38210548  0.25829944  0.73343152    -0.12260
C1960       C  0.39178635  0.24910546  0.69529516     0.04750
C1961       C  0.38535335  0.24202824  0.64828376    -0.07550
C1962       C  0.36944384  0.24272416  0.64196690    -0.08290
C1963       C  0.35975828  0.25049605  0.68090322    -0.02840
C1964       C  0.36612247  0.25918922  0.72694750     0.03970
N1965       N  0.35665401  0.26812419  0.76779142     0.66480
H1966       H  0.38703882  0.26425553  0.76898060     0.15380
H1967       H  0.36453340  0.23627722  0.60665801     0.15090
N1968       N  0.39463121  0.23501103  0.60588987     0.74180
O1969       O  0.36132738  0.26629367  0.81247984    -0.39270
O1970       O  0.34424959  0.28001421  0.75939608    -0.39210
O1971       O  0.40290585  0.21463155  0.60750625    -0.39910
O1972       O  0.39176941  0.24523433  0.56368587    -0.39980
C1973       C  0.44849096  0.14343400  0.33148310    -0.12260
C1974       C  0.43517705  0.15499890  0.31183693     0.04750
C1975       C  0.42311365  0.13817072  0.29568932    -0.07550
C1976       C  0.42441041  0.11077097  0.30065013    -0.08290
C1977       C  0.43758500  0.09928167  0.32062608    -0.02840
C1978       C  0.44990007  0.11570892  0.33632757     0.03970
N1979       N  0.46358943  0.10497737  0.35857325     0.66480
H1980       H  0.45779568  0.15607054  0.34368424     0.15380
H1981       H  0.41484679  0.09827910  0.28957603     0.15090
N1982       N  0.40922748  0.14847715  0.27527452     0.74180
O1983       O  0.47600273  0.11790384  0.35657434    -0.39270
O1984       O  0.46316005  0.08380551  0.38388304    -0.39210
O1985       O  0.40806399  0.15180783  0.22849671    -0.39910
O1986       O  0.39737500  0.14935543  0.30228199    -0.39980
C1987       C  0.45322622  0.25018707  0.49537963    -0.12260
C1988       C  0.43973242  0.25890855  0.47229910     0.04750
C1989       C  0.42732983  0.26745650  0.50193167    -0.07550
C1990       C  0.42872813  0.26656101  0.55438374    -0.08290
C1991       C  0.44200684  0.25686994  0.57748337    -0.02840
C1992       C  0.45459677  0.24908355  0.54784147     0.03970
N1993       N  0.46888001  0.24098731  0.57012342     0.66480
H1994       H  0.46292738  0.24503368  0.47212676     0.15380
H1995       H  0.41910558  0.27227543  0.57754480     0.15090
N1996       N  0.41326091  0.27651151  0.47967735     0.74180
O1997       O  0.47849928  0.22811018  0.54473477    -0.39270
O1998       O  0.47268285  0.24901280  0.61321336    -0.39210
O1999       O  0.40870844  0.26728587  0.43826143    -0.39910
O2000       O  0.40464225  0.29208223  0.50343745    -0.39980
C2001       C  0.43443833  0.27696120  0.00272675    -0.12260
C2002       C  0.43827898  0.25542262  0.97193312     0.04750
C2003       C  0.44263158  0.23124441  0.99452955    -0.07550
C2004       C  0.44263130  0.22908052  0.04697225    -0.08290
C2005       C  0.43880816  0.25065145  0.07781239    -0.02840
C2006       C  0.43452317  0.27488591  0.05508061     0.03970
N2007       N  0.42960298  0.29724572  0.08403191     0.66480
H2008       H  0.43100447  0.29557283  0.98589079     0.15380
H2009       H  0.44611566  0.21050185  0.06379868     0.15090
N2010       N  0.44793222  0.20925012  0.96533495     0.74180
O2011       O  0.43460863  0.32013653  0.07360131    -0.39270
O2012       O  0.41835514  0.29492507  0.11349456    -0.39210
O2013       O  0.45871605  0.21252100  0.93433761    -0.39910
O2014       O  0.44378741  0.18597488  0.97666768    -0.39980
C2015       C  0.38610138  0.25905209  0.15939286    -0.12260
C2016       C  0.39109340  0.25439317  0.20866111     0.04750
C2017       C  0.38030381  0.24939600  0.24701783    -0.07550
C2018       C  0.36475976  0.24791293  0.23423188    -0.08290
C2019       C  0.35979024  0.25146716  0.18464442    -0.02840
C2020       C  0.37051399  0.25761200  0.14656308     0.03970
N2021       N  0.36607116  0.26072514  0.09477417     0.66480
H2022       H  0.39453691  0.26198708  0.13006787     0.15380
H2023       H  0.35637239  0.24357072  0.26314633     0.15090
N2024       N  0.38488841  0.24490000  0.29832593     0.74180
O2025       O  0.37455024  0.27357646  0.06487495    -0.39270
O2026       O  0.35457329  0.24857148  0.07738778    -0.39210
O2027       O  0.39717246  0.25473328  0.31511924    -0.39910
O2028       O  0.37601754  0.23298389  0.32838496    -0.39980
C2029       C  0.32955345  0.61295690  0.80779400    -0.12260
C2030       C  0.31626676  0.59788274  0.81724211     0.04750
C2031       C  0.30239069  0.61129969  0.82711925    -0.07550
C2032       C  0.30217233  0.63921667  0.82644484    -0.08290
C2033       C  0.31555397  0.65408644  0.81782499    -0.02840
C2034       C  0.32943406  0.64076290  0.80816086     0.03970
N2035       N  0.34344523  0.65509411  0.79818389     0.66480
H2036       H  0.34016016  0.60290257  0.79920934     0.15380
H2037       H  0.29164066  0.64938751  0.83555137     0.15090
N2038       N  0.28843888  0.59716099  0.83748795     0.74180
O2039       O  0.35622197  0.64466032  0.80771004    -0.39270
O2040       O  0.34320022  0.67715436  0.77574449    -0.39210
O2041       O  0.28770319  0.58178501  0.87483767    -0.39910
O2042       O  0.27617756  0.60424136  0.81647281    -0.39980
C2043       C  0.29767334  0.39424646  0.68996010    -0.12260
C2044       C  0.30979347  0.40055870  0.72219807     0.04750
C2045       C  0.32157074  0.38196428  0.73034757    -0.07550
C2046       C  0.32073739  0.35730504  0.70600431    -0.08290
C2047       C  0.30859069  0.35077064  0.67345152    -0.02840
C2048       C  0.29709540  0.36993924  0.66463676     0.03970
N2049       N  0.28485085  0.36539994  0.62991730     0.66480
H2050       H  0.28875473  0.40868191  0.68335279     0.15380
H2051       H  0.32964867  0.34294020  0.71303578     0.15090
N2052       N  0.33423720  0.38740480  0.76357901     0.74180
O2053       O  0.27117856  0.36820502  0.64418851    -0.39270
O2054       O  0.28770845  0.36471142  0.58351334    -0.39210
O2055       O  0.33265478  0.40244064  0.80099241    -0.39910
O2056       O  0.34676282  0.37539628  0.75804154    -0.39980
C2057       C  0.30376925  0.63946352  0.34443038    -0.12260
C2058       C  0.31489172  0.65522265  0.32053979     0.04750
C2059       C  0.32632679  0.64321840  0.29099362    -0.07550
C2060       C  0.32645955  0.61547653  0.28760265    -0.08290
C2061       C  0.31553839  0.59937363  0.31235804    -0.02840
C2062       C  0.30375672  0.61173209  0.34001974     0.03970
N2063       N  0.29152984  0.59679263  0.36268236     0.66480
H2064       H  0.29499202  0.64888862  0.36681929     0.15380
H2065       H  0.33545562  0.60633820  0.26582889     0.15090
N2066       N  0.33779399  0.65844524  0.26409585     0.74180
O2067       O  0.28700460  0.60261519  0.40624662    -0.39270
O2068       O  0.28334999  0.58168878  0.33598856    -0.39210
O2069       O  0.34139074  0.68168887  0.27718954    -0.39910
O2070       O  0.34477179  0.64827864  0.22743690    -0.39980
C2071       C  0.31252189  0.52352021  0.55152475    -0.12260
C2072       C  0.31156916  0.50097798  0.58269091     0.04750
C2073       C  0.31273822  0.47564767  0.56025458    -0.07550
C2074       C  0.31507527  0.47364839  0.50835081    -0.08290
C2075       C  0.31588277  0.49620178  0.47713556    -0.02840
C2076       C  0.31477956  0.52151222  0.49965161     0.03970
N2077       N  0.31588842  0.54549846  0.47089515     0.66480
H2078       H  0.31197420  0.54319298  0.56760265     0.15380
H2079       H  0.31563997  0.45400476  0.49215098     0.15090
N2080       N  0.31107254  0.45167953  0.58887854     0.74180
O2081       O  0.30568381  0.56295054  0.47519959    -0.39270
O2082       O  0.32834544  0.55145594  0.44951053    -0.39210
O2083       O  0.29890331  0.44746204  0.61325975    -0.39910
O2084       O  0.32033456  0.43287647  0.58247151    -0.39980
C2085       C  0.32054114  0.51688197  0.05292192    -0.12260
C2086       C  0.30946490  0.50368399  0.08203061     0.04750
C2087       C  0.29908460  0.48604104  0.05879325    -0.07550
C2088       C  0.30034320  0.48180531  0.00683578    -0.08290
C2089       C  0.31168016  0.49466656  0.97780293    -0.02840
C2090       C  0.32213391  0.51198805  0.00154864     0.03970
N2091       N  0.33489812  0.52349316  0.97500676     0.66480
H2092       H  0.32856003  0.53018593  0.07101162     0.15380
H2093       H  0.29204703  0.46902498  0.98856927     0.15090
N2094       N  0.28686120  0.47339781  0.08644883     0.74180
O2095       O  0.33969376  0.54636395  0.98636973    -0.39270
O2096       O  0.34284654  0.50936684  0.94602758    -0.39210
O2097       O  0.28088797  0.48473170  0.12376220    -0.39910
O2098       O  0.28081664  0.45227467  0.07031845    -0.39980
C2099       C  0.30345803  0.35504676  0.21731842    -0.12260
C2100       C  0.30939024  0.35295638  0.16869964     0.04750
C2101       C  0.31595049  0.37547661  0.14513323    -0.07550
C2102       C  0.31616778  0.39963999  0.17121490    -0.08290
C2103       C  0.31017969  0.40193470  0.22006485    -0.02840
C2104       C  0.30388569  0.37909076  0.24350219     0.03970
N2105       N  0.29849384  0.37946849  0.29435078     0.66480
H2106       H  0.29882278  0.33754503  0.23567790     0.15380
H2107       H  0.32098119  0.41694616  0.15279129     0.15090
N2108       N  0.32292140  0.37421598  0.09606434     0.74180
O2109       O  0.28602571  0.36810388  0.30549224    -0.39270
O2110       O  0.30740287  0.38658782  0.32914002    -0.39210
O2111       O  0.31823385  0.35797270  0.06350555    -0.39910
O2112       O  0.33323801  0.39066780  0.08388668    -0.39980
C2113       C  0.43979063  0.63856515  0.52245050    -0.12260
C2114       C  0.43862531  0.65520583  0.56452711     0.04750
C2115       C  0.43910205  0.64420126  0.61316021    -0.07550
C2116       C  0.44029336  0.61662602  0.61813795    -0.08290
C2117       C  0.44076708  0.59987398  0.57601047    -0.02840
C2118       C  0.44101029  0.61102621  0.52751653     0.03970
N2119       N  0.44151898  0.59486498  0.48325922     0.66480
H2120       H  0.43961145  0.64712344  0.48510714     0.15380
H2121       H  0.43994042  0.60795778  0.65537933     0.15090
N2122       N  0.43722482  0.66016424  0.65744204     0.74180
O2123       O  0.43305935  0.60031867  0.44631691    -0.39270
O2124       O  0.45217991  0.57838383  0.47751627    -0.39210
O2125       O  0.42766458  0.67882347  0.65808124    -0.39910
O2126       O  0.44347302  0.65328863  0.69809535    -0.39980
C2127       C  0.45523823  0.38692294  0.67138903    -0.12260
C2128       C  0.44190452  0.40226806  0.67092592     0.04750
C2129       C  0.42830607  0.39205263  0.69273556    -0.07550
C2130       C  0.42865473  0.36737709  0.71671162    -0.08290
C2131       C  0.44210382  0.35250003  0.71863102    -0.02840
C2132       C  0.45555672  0.36213768  0.69514194     0.03970
N2133       N  0.46937278  0.34681704  0.69300982     0.66480
H2134       H  0.46562824  0.39456878  0.65427804     0.15380
H2135       H  0.41825512  0.35945747  0.73334994     0.15090
N2136       N  0.41396382  0.40577958  0.68902459     0.74180
O2137       O  0.47725804  0.34667943  0.65329998    -0.39270
O2138       O  0.47493781  0.33680865  0.73232795    -0.39210
O2139       O  0.40982088  0.41565973  0.64768147    -0.39910
O2140       O  0.40445374  0.40461438  0.72466397    -0.39980
C2141       C  0.38610765  0.48997852  0.72092165    -0.12260
C2142       C  0.39113393  0.50139777  0.67568181     0.04750
C2143       C  0.38039725  0.51239247  0.64221248    -0.07550
C2144       C  0.36496728  0.51327438  0.65656508    -0.08290
C2145       C  0.35997977  0.50342700  0.70322156    -0.02840
C2146       C  0.37065018  0.49116046  0.73561508     0.03970
N2147       N  0.36637216  0.48185398  0.78477067     0.66480
H2148       H  0.39449231  0.48211359  0.74686967     0.15380
H2149       H  0.35669502  0.52183750  0.63104936     0.15090
N2150       N  0.38496651  0.52282636  0.59399428     0.74180
O2151       O  0.37332732  0.46253950  0.80426510    -0.39270
O2152       O  0.35736784  0.49518585  0.81168504    -0.39210
O2153       O  0.39659467  0.51387313  0.57172001    -0.39910
O2154       O  0.37660106  0.53927589  0.57130553    -0.39980
C2155       C  0.44749700  0.64369683  0.06054336    -0.12260
C2156       C  0.43415109  0.65754491  0.07207638     0.04750
C2157       C  0.42114929  0.64361728  0.09037458    -0.07550
C2158       C  0.42182292  0.61576746  0.09325509    -0.08290
C2159       C  0.43514500  0.60164649  0.08054875    -0.02840
C2160       C  0.44826073  0.61611222  0.06574018     0.03970
N2161       N  0.46275075  0.60360901  0.05989513     0.66480
H2162       H  0.45750921  0.65456620  0.04765870     0.15380
H2163       H  0.41182471  0.60490984  0.10608790     0.15090
N2164       N  0.40751702  0.65699307  0.10783550     0.74180
O2165       O  0.47170819  0.61142582  0.02564645    -0.39270
O2166       O  0.46797180  0.58999831  0.09572409    -0.39210
O2167       O  0.40631341  0.68188670  0.10572318    -0.39910
O2168       O  0.39702931  0.64400831  0.12961802    -0.39980
C2169       C  0.43823050  0.47572953  0.88819466    -0.12260
C2170       C  0.43779420  0.49830758  0.91914980     0.04750
C2171       C  0.43702804  0.52354838  0.89619963    -0.07550
C2172       C  0.43737383  0.52567678  0.84392522    -0.08290
C2173       C  0.43791595  0.50312843  0.81298790    -0.02840
C2174       C  0.43797365  0.47776900  0.83580585     0.03970
N2175       N  0.43708328  0.45386507  0.80688707     0.66480
H2176       H  0.43848842  0.45609310  0.90468974     0.15380
H2177       H  0.43704879  0.54534187  0.82754478     0.15090
N2178       N  0.43582069  0.54731518  0.92504818     0.74180
O2179       O  0.44617727  0.43510120  0.81589422    -0.39270
O2180       O  0.42548976  0.44953132  0.77980756    -0.39210
O2181       O  0.44671903  0.56384856  0.92506965    -0.39910
O2182       O  0.42296592  0.55401355  0.94235060    -0.39980
C2183       C  0.44932905  0.48564954  0.33423132    -0.12260
C2184       C  0.43981465  0.50512480  0.31397264     0.04750
C2185       C  0.43059736  0.52055901  0.34639462    -0.07550
C2186       C  0.43147051  0.51654208  0.39822846    -0.08290
C2187       C  0.44094337  0.49701379  0.41850600    -0.02840
C2188       C  0.45022596  0.48166920  0.38611559     0.03970
N2189       N  0.46124463  0.46316062  0.40511026     0.66480
H2190       H  0.45657734  0.47414652  0.30959339     0.15380
H2191       H  0.42422452  0.52808108  0.42281791     0.15090
N2192       N  0.41969764  0.53930503  0.32748979     0.74180
O2193       O  0.46365576  0.44176512  0.38201670    -0.39270
O2194       O  0.47043747  0.47019453  0.43912197    -0.39210
O2195       O  0.41035551  0.53245728  0.29377020    -0.39910
O2196       O  0.41762517  0.56092004  0.35020901    -0.39980
C2197       C  0.43113113  0.36237600  0.19577950    -0.12260
C2198       C  0.44489267  0.35182146  0.21395778     0.04750
C2199       C  0.45853273  0.36699931  0.20945113    -0.07550
C2200       C  0.45785846  0.39265759  0.18870193    -0.08290
C2201       C  0.44397128  0.40346092  0.17222857    -0.02840
C2202       C  0.43044646  0.38799782  0.17550964     0.03970
N2203       N  0.41603672  0.39741895  0.15688925     0.66480
H2204       H  0.42064638  0.35086464  0.19873149     0.15380
H2205       H  0.46828699  0.40424694  0.18494340     0.15090
N2206       N  0.47316497  0.35641704  0.22356704     0.74180
O2207       O  0.40767424  0.38225078  0.13093222    -0.39270
O2208       O  0.41041218  0.41858410  0.17373161    -0.39210
O2209       O  0.47659384  0.33288338  0.21237611    -0.39910
O2210       O  0.48345822  0.37158013  0.24064155    -0.39980
C2211       C  0.36948775  0.49160736  0.23357578    -0.12260
C2212       C  0.36009990  0.50480175  0.19897354     0.04750
C2213       C  0.36667925  0.51504657  0.15446162    -0.07550
C2214       C  0.38243419  0.51326450  0.14685454    -0.08290
C2215       C  0.39193528  0.50166059  0.18269505    -0.02840
C2216       C  0.38544470  0.49000139  0.22631761     0.03970
N2217       N  0.39476729  0.47780030  0.26448452     0.66480
H2218       H  0.36440143  0.48336520  0.26730163     0.15380
H2219       H  0.38741589  0.52221455  0.11354429     0.15090
N2220       N  0.35761113  0.52714896  0.11616390     0.74180
O2221       O  0.38991881  0.47595100  0.30900209    -0.39270
O2222       O  0.40730537  0.46698432  0.25344617    -0.39210
O2223       O  0.35284046  0.55047272  0.12236005    -0.39910
O2224       O  0.35806014  0.51778568  0.07232705    -0.39980
C2225       C  0.24301804  0.52642965  0.87494628    -0.12260
C2226       C  0.23701319  0.50834723  0.91023488     0.04750
C2227       C  0.24551779  0.48553633  0.92159359    -0.07550
C2228       C  0.25947652  0.48108927  0.89725955    -0.08290
C2229       C  0.26526994  0.49859066  0.86039862    -0.02840
C2230       C  0.25671743  0.52174937  0.84838584     0.03970
N2231       N  0.26066005  0.53967404  0.80766482     0.66480
H2232       H  0.23649256  0.54397009  0.86599356     0.15380
H2233       H  0.26601158  0.46378676  0.90804533     0.15090
N2234       N  0.24050843  0.46721442  0.95926155     0.74180
O2235       O  0.25064056  0.55493241  0.78971211    -0.39270
O2236       O  0.27381268  0.54032929  0.78834854    -0.39210
O2237       O  0.23211911  0.44781320  0.94713900    -0.39910
O2238       O  0.24689046  0.46735939  0.00171241    -0.39980
C2239       C  0.24191731  0.47960585  0.39124695    -0.12260
C2240       C  0.23960393  0.50157154  0.42263226     0.04750
C2241       C  0.25184231  0.51969734  0.42996543    -0.07550
C2242       C  0.26549500  0.51649282  0.40255359    -0.08290
C2243       C  0.26747865  0.49526968  0.36906166    -0.02840
C2244       C  0.25549483  0.47651160  0.36350846     0.03970
N2245       N  0.25656425  0.45511581  0.32802478     0.66480
H2246       H  0.23264969  0.46563084  0.38557708     0.15380
H2247       H  0.27496696  0.53000910  0.40922763     0.15090
N2248       N  0.25086894  0.54057805  0.46661114     0.74180
O2249       O  0.24941654  0.43365596  0.33573565    -0.39270
O2250       O  0.26280063  0.45888661  0.28582624    -0.39210
O2251       O  0.24312861  0.53724631  0.50618329    -0.40550
O2252       O  0.25931928  0.56089170  0.46289977    -0.39980
C2253       C  0.19994763  0.50794258  0.71331303    -0.12260
C2254       C  0.18759919  0.49447709  0.69177533     0.04750
C2255       C  0.17566017  0.48458879  0.72329590    -0.07550
C2256       C  0.17659619  0.48871668  0.77546381    -0.08290
C2257       C  0.18896185  0.50243174  0.79667664    -0.02840
C2258       C  0.20079005  0.51188158  0.76504625     0.03970
N2259       N  0.21424959  0.52414956  0.78493984     0.66480
H2260       H  0.20915492  0.51531722  0.68968997     0.15380
H2261       H  0.16750533  0.48146801  0.79964628     0.15090
N2262       N  0.16217336  0.47174663  0.70360011     0.74180
O2263       O  0.22704063  0.51347370  0.77695305    -0.39270
O2264       O  0.21383666  0.54815873  0.79800539    -0.39210
O2265       O  0.16330963  0.45292494  0.67281392    -0.39910
O2266       O  0.14936293  0.47567478  0.72415463    -0.39980
C2267       C  0.18261227  0.52467001  0.27065645    -0.12260
C2268       C  0.19271801  0.50861056  0.29760205     0.04750
C2269       C  0.20310024  0.49252529  0.27139570    -0.07550
C2270       C  0.20298648  0.49252187  0.21905346    -0.08290
C2271       C  0.19250154  0.50764794  0.19159376    -0.02840
C2272       C  0.18195611  0.52424738  0.21779139     0.03970
N2273       N  0.17013125  0.53971961  0.19338174     0.66480
H2274       H  0.17492656  0.53730164  0.29155242     0.15380
H2275       H  0.21091842  0.47974024  0.19941573     0.15090
N2276       N  0.21411624  0.47653038  0.29695014     0.74180
O2277       O  0.16044768  0.55210021  0.21942820    -0.39270
O2278       O  0.16887926  0.54094439  0.14638143    -0.39210
O2279       O  0.20963831  0.45867258  0.32684806    -0.39910
O2280       O  0.22774887  0.47615388  0.28128402    -0.39980
C2281       C  0.11945039  0.51334475  0.61070182    -0.12260
C2282       C  0.10950726  0.50385259  0.57355705     0.04750
C2283       C  0.11549949  0.49670696  0.52633021    -0.07550
C2284       C  0.13135724  0.49581097  0.51931964    -0.08290
C2285       C  0.14139634  0.50366795  0.55733065    -0.02840
C2286       C  0.13543899  0.51395201  0.60292446     0.03970
N2287       N  0.14526786  0.52425514  0.64190460     0.66480
H2288       H  0.11472558  0.51950196  0.64637097     0.15380
H2289       H  0.13593760  0.48889754  0.48391270     0.15090
N2290       N  0.10554698  0.49152896  0.48470850     0.74180
O2291       O  0.14018045  0.52723895  0.68586809    -0.39270
O2292       O  0.15828200  0.53374838  0.63146767    -0.39210
O2293       O  0.09470500  0.50725569  0.47585232    -0.39910
O2294       O  0.10918199  0.47469297  0.45189234    -0.39980
C2295       C  0.07445527  0.51093317  0.92778144    -0.12260
C2296       C  0.06057383  0.50992693  0.95402532     0.04750
C2297       C  0.04665327  0.51177206  0.92734526    -0.07550
C2298       C  0.04721217  0.51281505  0.87451314    -0.08290
C2299       C  0.06116234  0.51106593  0.84832917    -0.02840
C2300       C  0.07494943  0.51067780  0.87530526     0.03970
N2301       N  0.08946329  0.51094785  0.85010624     0.66480
H2302       H  0.08497914  0.51125006  0.94853619     0.15380
H2303       H  0.03671259  0.51512007  0.85342049     0.15090
N2304       N  0.03208660  0.51315546  0.95278433     0.74180
O2305       O  0.09968319  0.52738412  0.86284083    -0.39270
O2306       O  0.09251484  0.49361735  0.81759355    -0.39210
O2307       O  0.03125760  0.52096672  0.99766038    -0.39910
O2308       O  0.01981021  0.50887556  0.92908789    -0.39980
C2309       C  0.05220111  0.52070211  0.37844573    -0.12260
C2310       C  0.06239244  0.50563468  0.34916101     0.04750
C2311       C  0.07109618  0.48565469  0.37267240    -0.07550
C2312       C  0.06905233  0.48086074  0.42414436    -0.08290
C2313       C  0.05940139  0.49671921  0.45370914    -0.02840
C2314       C  0.05057993  0.51655661  0.43033242     0.03970
N2315       N  0.03952732  0.53179097  0.45794904     0.66480
H2316       H  0.04507910  0.53543394  0.36046987     0.15380
H2317       H  0.07602821  0.46590806  0.44211057     0.15090
N2318       N  0.08279320  0.47146438  0.34608929     0.74180
O2319       O  0.03578138  0.55459608  0.44291016    -0.39270
O2320       O  0.03207481  0.52132465  0.49352683    -0.39210
O2321       O  0.09182191  0.48375851  0.31709659    -0.39910
O2322       O  0.08575757  0.44777743  0.35775582    -0.39980
C2323       C  0.13369844  0.49675406  0.02795706    -0.12260
C2324       C  0.14304556  0.49669579  0.07027390     0.04750
C2325       C  0.13622914  0.49663820  0.11876477    -0.07550
C2326       C  0.12014109  0.49800902  0.12267566    -0.08290
C2327       C  0.11077061  0.49694975  0.08004914    -0.02840
C2328       C  0.11773772  0.49558499  0.03212667     0.03970
N2329       N  0.10901910  0.49204360  0.98717547     0.66480
H2330       H  0.13893676  0.49583474  0.99110666     0.15380
H2331       H  0.11480133  0.49822262  0.15937684     0.15090
N2332       N  0.14516500  0.49459379  0.16409394     0.74180
O2333       O  0.11332890  0.50361445  0.94752022    -0.39270
O2334       O  0.09991157  0.47262291  0.98367157    -0.39210
O2335       O  0.13974665  0.50266740  0.20520506    -0.39910
O2336       O  0.15740386  0.48147378  0.16490379    -0.39980
C2337       C  0.23663297  0.76155864  0.77908935    -0.12260
C2338       C  0.23543457  0.74901742  0.73216975     0.04750
C2339       C  0.24871630  0.73919488  0.70865058    -0.07550
C2340       C  0.26283114  0.74173004  0.73351731    -0.08290
C2341       C  0.26402826  0.75416410  0.78051507    -0.02840
C2342       C  0.25076198  0.76414437  0.80394915     0.03970
N2343       N  0.25128709  0.77583845  0.85328717     0.66480
H2344       H  0.22629590  0.76824063  0.79756136     0.15380
H2345       H  0.27316469  0.73504921  0.71501565     0.15090
N2346       N  0.24820200  0.72771087  0.65915399     0.74180
O2347       O  0.24034354  0.78990891  0.86864245    -0.39270
O2348       O  0.26182680  0.76998208  0.88366901    -0.39210
O2349       O  0.23794787  0.73436640  0.62831335    -0.39910
O2350       O  0.25895709  0.71312404  0.64411909    -0.39980
C2351       C  0.19036139  0.64713744  0.54456832    -0.12260
C2352       C  0.19153217  0.64991028  0.59676110     0.04750
C2353       C  0.19379995  0.62711909  0.62691759    -0.07550
C2354       C  0.19532045  0.60234597  0.60384280    -0.08290
C2355       C  0.19453649  0.59964619  0.55162415    -0.02840
C2356       C  0.19195562  0.62233521  0.52144646     0.03970
N2357       N  0.19028457  0.62062448  0.46788491     0.66480
H2358       H  0.18864142  0.66455270  0.52139855     0.15380
H2359       H  0.19681915  0.58484210  0.62695921     0.15090
N2360       N  0.19394323  0.62851739  0.68083623     0.74180
O2361       O  0.18033320  0.63450187  0.44594811    -0.39270
O2362       O  0.20028355  0.60911431  0.44179712    -0.39210
O2363       O  0.18437936  0.64278011  0.70363948    -0.39910
O2364       O  0.20213548  0.61277480  0.70589434    -0.39980
C2365       C  0.24619248  0.75494340  0.20738296    -0.12260
C2366       C  0.23517946  0.74541926  0.24112297     0.04750
C2367       C  0.23928089  0.74149657  0.29221288    -0.07550
C2368       C  0.25428096  0.74736009  0.30785987    -0.08290
C2369       C  0.26522520  0.75703611  0.27417199    -0.02840
C2370       C  0.26117815  0.76071324  0.22313618     0.03970
N2371       N  0.27216288  0.76950718  0.18648415     0.66480
H2372       H  0.24308338  0.75801818  0.16845152     0.15380
H2373       H  0.25747167  0.74428558  0.34671747     0.15090
N2374       N  0.22841159  0.73248182  0.32917463     0.74180
O2375       O  0.27249664  0.75873028  0.14379706    -0.39270
O2376       O  0.27962784  0.79067384  0.19332160    -0.39210
O2377       O  0.21995058  0.71266989  0.32053862    -0.39910
O2378       O  0.22922921  0.74114824  0.37349778    -0.39980
C2379       C  0.18896460  0.72708144  0.93499978    -0.12260
C2380       C  0.19315972  0.75198459  0.95435405     0.04750
C2381       C  0.19558334  0.77331584  0.92027692    -0.07550
C2382       C  0.19315629  0.76944183  0.86887107    -0.08290
C2383       C  0.18883416  0.74465998  0.84978204    -0.02840
C2384       C  0.18666015  0.72316613  0.88343662     0.03970
N2385       N  0.18152088  0.69757975  0.86639566     0.66480
H2386       H  0.18667119  0.71072319  0.96037254     0.15380
H2387       H  0.19543144  0.78573019  0.84327521     0.15090
N2388       N  0.20087895  0.79886811  0.93666623     0.74180
O2389       O  0.18606802  0.67679706  0.88810358    -0.39270
O2390       O  0.17095890  0.69580243  0.83425011    -0.39210
O2391       O  0.21284756  0.80071770  0.96297448    -0.39910
O2392       O  0.19509479  0.81964926  0.91846909    -0.39980
C2393       C  0.19598438  0.76602308  0.37013789    -0.12260
C2394       C  0.18555816  0.74774950  0.34967121     0.04750
C2395       C  0.17650421  0.73178961  0.38213698    -0.07550
C2396       C  0.17886017  0.73379154  0.43427508    -0.08290
C2397       C  0.18960771  0.75160290  0.45463916    -0.02840
C2398       C  0.19827761  0.76798314  0.42207892     0.03970
N2399       N  0.20991217  0.78572829  0.44076759     0.66480
H2400       H  0.20313145  0.77775075  0.34517161     0.15380
H2401       H  0.17175147  0.72221168  0.45956325     0.15090
N2402       N  0.16449926  0.71458546  0.36345320     0.74180
O2403       O  0.21811757  0.77909648  0.47763940    -0.39270
O2404       O  0.21329319  0.80657096  0.41677757    -0.39210
O2405       O  0.15921399  0.71751252  0.31973894    -0.39910
O2406       O  0.15781141  0.69850374  0.39264364    -0.39980
C2407       C  0.17884873  0.61094340  0.07273270    -0.12260
C2408       C  0.19199302  0.60256867  0.04693846     0.04750
C2409       C  0.20516012  0.61908489  0.04699414    -0.07550
C2410       C  0.20495397  0.64307127  0.07340042    -0.08290
C2411       C  0.19174505  0.65145683  0.09836912    -0.02840
C2412       C  0.17848423  0.63525081  0.09824364     0.03970
N2413       N  0.16471847  0.64282499  0.12429781     0.66480
H2414       H  0.16875926  0.59833876  0.07320972     0.15380
H2415       H  0.21504479  0.65569582  0.07303144     0.15090
N2416       N  0.21888154  0.61182396  0.02115019     0.74180
O2417       O  0.15188341  0.63386217  0.11035631    -0.39270
O2418       O  0.16539377  0.65642280  0.16394693    -0.39210
O2419       O  0.21930384  0.61308198  0.97387468    -0.39910
O2420       O  0.23128425  0.61023547  0.04518969    -0.39980
C2421       C  0.07452417  0.64014752  0.05167696    -0.12260
C2422       C  0.06038955  0.65224610  0.04245487     0.04750
C2423       C  0.04680622  0.64014559  0.06048929    -0.07550
C2424       C  0.04780219  0.61624204  0.08738621    -0.08290
C2425       C  0.06195131  0.60395247  0.09593041    -0.02840
C2426       C  0.07552360  0.61625380  0.07833452     0.03970
N2427       N  0.09039627  0.60557845  0.08921677     0.66480
H2428       H  0.08495864  0.64985340  0.03912925     0.15380
H2429       H  0.03737435  0.60681831  0.10068924     0.15090
N2430       N  0.03206618  0.65216867  0.05394226     0.74180
O2431       O  0.10120870  0.60849118  0.05819367    -0.39270
O2432       O  0.09333375  0.59656294  0.13235002    -0.39210
O2433       O  0.02768038  0.65928594  0.01091906    -0.39910
O2434       O  0.02246177  0.65159199  0.08934911    -0.39980
C2435       C  0.13354331  0.77372927  0.10273879    -0.12260
C2436       C  0.14238601  0.75500563  0.07755896     0.04750
C2437       C  0.13532320  0.73780737  0.04238218    -0.07550
C2438       C  0.11937814  0.73957134  0.03499257    -0.08290
C2439       C  0.11058243  0.75888009  0.05940386    -0.02840
C2440       C  0.11787212  0.77649652  0.09374227     0.03970
N2441       N  0.10993834  0.79755722  0.11943757     0.66480
H2442       H  0.13911898  0.78698447  0.12909746     0.15380
H2443       H  0.11385669  0.72649739  0.00824784     0.15090
N2444       N  0.14404429  0.72015487  0.01108615     0.74180
O2445       O  0.11725913  0.81772480  0.13432430    -0.39270
O2446       O  0.09619733  0.79493189  0.13296872    -0.39210
O2447       O  0.15609596  0.70935687  0.02692762    -0.39910
O2448       O  0.13925152  0.71421454  0.96783780    -0.39980
C2449       C  0.06216500  0.72651893  0.75995467    -0.12260
C2450       C  0.07002509  0.74549304  0.78921407     0.04750
C2451       C  0.07614933  0.76819459  0.76519028    -0.07550
C2452       C  0.07348644  0.77190581  0.71353851    -0.08290
C2453       C  0.06507079  0.75339104  0.68485796    -0.02840
C2454       C  0.05933161  0.73037553  0.70872393     0.03970
N2455       N  0.04977148  0.71159399  0.68270817     0.66480
H2456       H  0.05705354  0.70930627  0.77784740     0.15380
H2457       H  0.07851123  0.78905802  0.69518794     0.15090
N2458       N  0.08553456  0.78700424  0.79183587     0.74180
O2459       O  0.05049216  0.68723617  0.69338607    -0.39270
O2460       O  0.03894818  0.71962807  0.65535463    -0.39210
O2461       O  0.09495998  0.77911892  0.82442127    -0.39910
O2462       O  0.08597890  0.81097278  0.77813291    -0.39980
C2463       C  0.07311188  0.74979104  0.26790900    -0.12260
C2464       C  0.05881647  0.74430530  0.28929579     0.04750
C2465       C  0.04627056  0.73801435  0.25749416    -0.07550
C2466       C  0.04818998  0.73924621  0.20521707    -0.08290
C2467       C  0.06236994  0.74565688  0.18398734    -0.02840
C2468       C  0.07520410  0.74940799  0.21568094     0.03970
N2469       N  0.09049321  0.75057440  0.19575429     0.66480
H2470       H  0.08289322  0.75276747  0.29229176     0.15380
H2471       H  0.03840628  0.73613978  0.18089908     0.15090
N2472       N  0.03144512  0.73120529  0.27724109     0.74180
O2473       O  0.10112008  0.76138846  0.22062973    -0.39270
O2474       O  0.09393893  0.73686794  0.15789065    -0.39210
O2475       O  0.02649991  0.74248341  0.31602255    -0.39910
O2476       O  0.02248512  0.71643688  0.25259867    -0.39980
C2477       C  0.06396829  0.64818125  0.59225706    -0.12260
C2478       C  0.05739598  0.65165570  0.54458172     0.04750
C2479       C  0.05096933  0.62934925  0.51990128    -0.07550
C2480       C  0.05092519  0.60460056  0.54400408    -0.08290
C2481       C  0.05735062  0.60132385  0.59169246    -0.02840
C2482       C  0.06407307  0.62336499  0.61637103     0.03970
N2483       N  0.07141787  0.62107249  0.66473097     0.66480
H2484       H  0.06889376  0.66512662  0.61138003     0.15380
H2485       H  0.04611183  0.58754590  0.52485994     0.15090
N2486       N  0.04506311  0.63104821  0.46974808     0.74180
O2487       O  0.08142369  0.63785055  0.67785945    -0.39270
O2488       O  0.06737245  0.60351350  0.69589422    -0.39210
O2489       O  0.05325341  0.64075090  0.43516449    -0.39910
O2490       O  0.03289168  0.61885743  0.45834760    -0.39980
C2491       C  0.13658640  0.75384778  0.52668065    -0.12260
C2492       C  0.14116631  0.75162783  0.57699689     0.04750
C2493       C  0.13007081  0.74750417  0.61490501    -0.07550
C2494       C  0.11456334  0.74674409  0.60109247    -0.08290
C2495       C  0.10997077  0.75028619  0.55108671    -0.02840
C2496       C  0.12107617  0.75313047  0.51291832     0.03970
N2497       N  0.11690659  0.75624075  0.46084545     0.66480
H2498       H  0.14525694  0.75663277  0.49799276     0.15380
H2499       H  0.10587564  0.74505677  0.63002631     0.15090
N2500       N  0.13408543  0.74570399  0.66731856     0.74180
O2501       O  0.12639319  0.76580448  0.42983694    -0.39270
O2502       O  0.10428978  0.74747698  0.44460532    -0.39210
O2503       O  0.14575240  0.75752534  0.68430935    -0.39910
O2504       O  0.12509113  0.73444386  0.69788066    -0.39980
C2505       C  0.23964356  0.27056040  0.99995680    -0.12260
C2506       C  0.23597992  0.24442981  0.98561321     0.04750
C2507       C  0.24629918  0.22393306  0.99845133    -0.07550
C2508       C  0.25970056  0.23006087  0.02520986    -0.08290
C2509       C  0.26344753  0.25625608  0.03888292    -0.02840
C2510       C  0.25298603  0.27663672  0.02689084     0.03970
N2511       N  0.25551030  0.30354280  0.04242354     0.66480
H2512       H  0.23170208  0.28647715  0.99232090     0.15380
H2513       H  0.26768658  0.21420578  0.03278506     0.15090
N2514       N  0.24373274  0.19696532  0.98330051     0.74180
O2515       O  0.25278162  0.32240088  0.01260648    -0.39270
O2516       O  0.25853434  0.30862419  0.08771108    -0.39210
O2517       O  0.24079733  0.19173259  0.93801284    -0.39910
O2518       O  0.24675772  0.17821214  0.01306551    -0.39980
C2519       C  0.17459954  0.36246901  0.93837261    -0.12260
C2520       C  0.18831834  0.34812320  0.93983563     0.04750
C2521       C  0.20227632  0.36187426  0.94842149    -0.07550
C2522       C  0.20196000  0.38946005  0.95681317    -0.08290
C2523       C  0.18814047  0.40348757  0.95641580    -0.02840
C2524       C  0.17433025  0.38975533  0.94704471     0.03970
N2525       N  0.15995287  0.40325808  0.94484546     0.66480
H2526       H  0.16386527  0.35228266  0.93108897     0.15380
H2527       H  0.21255367  0.40006707  0.96402342     0.15090
N2528       N  0.21680692  0.34863240  0.94692914     0.74180
O2529       O  0.15187636  0.40151264  0.90573997    -0.39270
O2530       O  0.15394140  0.41186418  0.98461294    -0.39210
O2531       O  0.21947557  0.33142279  0.91380340    -0.39910
O2532       O  0.22773497  0.35688134  0.97376804    -0.39980
C2533       C  0.23760815  0.26909719  0.51680746    -0.12260
C2534       C  0.23533569  0.24708106  0.48521112     0.04750
C2535       C  0.24722451  0.22831144  0.48061344    -0.07550
C2536       C  0.26080750  0.23182775  0.50809999    -0.08290
C2537       C  0.26330826  0.25427326  0.53819376    -0.02840
C2538       C  0.25132204  0.27279781  0.54378467     0.03970
N2539       N  0.25255824  0.29456923  0.57844581     0.66480
H2540       H  0.22830991  0.28287057  0.52256198     0.15380
H2541       H  0.26992069  0.21763669  0.50339735     0.15090
N2542       N  0.24602594  0.20631593  0.44652152     0.74180
O2543       O  0.24481583  0.31532445  0.57172211    -0.39270
O2544       O  0.25976158  0.29181053  0.61916275    -0.39210
O2545       O  0.24039342  0.20962466  0.40335619    -0.39910
O2546       O  0.25255089  0.18467971  0.45652904    -0.39980
C2547       C  0.17200135  0.36328803  0.42531610    -0.12260
C2548       C  0.18492606  0.34828396  0.43832529     0.04750
C2549       C  0.19824050  0.36161041  0.45549797    -0.07550
C2550       C  0.19803702  0.38935926  0.46060185    -0.08290
C2551       C  0.18496447  0.40407756  0.44849749    -0.02840
C2552       C  0.17180553  0.39085332  0.43046514     0.03970
N2553       N  0.15834512  0.40500286  0.41540405     0.66480
H2554       H  0.16177492  0.35346307  0.41151009     0.15380
H2555       H  0.20815047  0.39955847  0.47434310     0.15090
N2556       N  0.21216524  0.34767088  0.46601279     0.74180
O2557       O  0.15217293  0.39982543  0.37372738    -0.39270
O2558       O  0.15104463  0.41863911  0.44688500    -0.39210
O2559       O  0.21767812  0.33207213  0.43384744    -0.39910
O2560       O  0.22026374  0.35430071  0.50318548    -0.39980
C2561       C  0.18577720  0.22332131  0.62894452    -0.12260
C2562       C  0.18775663  0.24554204  0.59767993     0.04750
C2563       C  0.19151244  0.27021285  0.61964421    -0.07550
C2564       C  0.19327806  0.27200315  0.67158404    -0.08290
C2565       C  0.19111494  0.24988773  0.70311240    -0.02840
C2566       C  0.18751364  0.22508868  0.68103155     0.03970
N2567       N  0.18555850  0.20146517  0.71040522     0.66480
H2568       H  0.18314624  0.20414846  0.61271696     0.15380
H2569       H  0.19601321  0.29123709  0.68733914     0.15090
N2570       N  0.19388024  0.29363044  0.59005809     0.74180
O2571       O  0.17358059  0.18760377  0.70533942    -0.39270
O2572       O  0.19690300  0.19173396  0.73306225    -0.39210
O2573       O  0.18249876  0.30520111  0.57103538    -0.39910
O2574       O  0.20653380  0.30577815  0.59245108    -0.39980
C2575       C  0.18486870  0.26980177  0.11814676    -0.12260
C2576       C  0.19005810  0.24573807  0.09848755     0.04750
C2577       C  0.19629647  0.22660220  0.13176126    -0.07550
C2578       C  0.19607149  0.23122261  0.18350372    -0.08290
C2579       C  0.19063171  0.25508535  0.20320745    -0.02840
C2580       C  0.18512595  0.27483383  0.16975710     0.03970
N2581       N  0.17933647  0.29980551  0.18700868     0.66480
H2582       H  0.18026100  0.28477468  0.09326795     0.15380
H2583       H  0.20072571  0.21633516  0.20849086     0.15090
N2584       N  0.20378602  0.20318936  0.11390988     0.74180
O2585       O  0.18325193  0.32092374  0.16482107    -0.39270
O2586       O  0.16833718  0.30043089  0.21767271    -0.39210
O2587       O  0.21494062  0.20536097  0.08400499    -0.39910
O2588       O  0.20139847  0.18122999  0.13544341    -0.39980
C2589       C  0.08036236  0.38996837  0.67818204    -0.12260
C2590       C  0.06734994  0.40495128  0.69033319     0.04750
C2591       C  0.05390312  0.39145261  0.70617104    -0.07550
C2592       C  0.05419672  0.36373126  0.71220309    -0.08290
C2593       C  0.06738405  0.34905022  0.70151744    -0.02840
C2594       C  0.08060031  0.36230297  0.68356065     0.03970
N2595       N  0.09414671  0.34819269  0.66880578     0.66480
H2596       H  0.09062564  0.39994532  0.66495886     0.15380
H2597       H  0.04401164  0.35346139  0.72531776     0.15090
N2598       N  0.03971866  0.40511855  0.71387649     0.74180
O2599       O  0.10170379  0.35583455  0.63099898    -0.39270
O2600       O  0.09955717  0.33005398  0.69605770    -0.39210
O2601       O  0.03490817  0.42112711  0.68109454    -0.39910
O2602       O  0.03073999  0.39769953  0.74837258    -0.39980
C2603       C  0.11956342  0.25412186  0.77167036    -0.12260
C2604       C  0.10979543  0.25279257  0.81327418     0.04750
C2605       C  0.11607882  0.25103581  0.86206219    -0.07550
C2606       C  0.13202876  0.25201486  0.86809299    -0.08290
C2607       C  0.14177477  0.25480905  0.82674703    -0.02840
C2608       C  0.13553131  0.25536891  0.77767972     0.03970
N2609       N  0.14506875  0.25707939  0.73371097     0.66480
H2610       H  0.11469221  0.25556043  0.73438257     0.15380
H2611       H  0.13690989  0.25102338  0.90541616     0.15090
N2612       N  0.10646889  0.24816765  0.90559111     0.74180
O2613       O  0.14128572  0.24479895  0.69436412    -0.39270
O2614       O  0.15603075  0.27344307  0.73161997    -0.39210
O2615       O  0.09422112  0.23489372  0.90307528    -0.39910
O2616       O  0.11105514  0.25603574  0.94795748    -0.39980
C2617       C  0.07102832  0.39658879  0.22827571    -0.12260
C2618       C  0.06303467  0.40577561  0.18643020     0.04750
C2619       C  0.05520228  0.38748311  0.15491933    -0.07550
C2620       C  0.05641550  0.36018655  0.16548644    -0.08290
C2621       C  0.06494011  0.35080250  0.20640890    -0.02840
C2622       C  0.07189713  0.36950020  0.23915390     0.03970
N2623       N  0.07964587  0.36158122  0.28412813     0.66480
H2624       H  0.07678351  0.41066963  0.25261785     0.15380
H2625       H  0.05081168  0.34602288  0.14106117     0.15090
N2626       N  0.04586309  0.39584020  0.11290559     0.74180
O2627       O  0.09277536  0.37085192  0.29373092    -0.39270
O2628       O  0.07228356  0.34976948  0.31837070    -0.39210
O2629       O  0.04544966  0.41971533  0.09877990    -0.39910
O2630       O  0.03740720  0.37926576  0.09053908    -0.39980
C2631       C  0.06485882  0.22563807  0.01646994    -0.12260
C2632       C  0.06209197  0.24778429  0.04677941     0.04750
C2633       C  0.05792464  0.27192737  0.02382783    -0.07550
C2634       C  0.05669433  0.27335245  0.97160617    -0.08290
C2635       C  0.05973419  0.25133776  0.94086574    -0.02840
C2636       C  0.06362658  0.22695820  0.96416993     0.03970
N2637       N  0.06633386  0.20327879  0.93598019     0.66480
H2638       H  0.06774688  0.20683878  0.03369134     0.15380
H2639       H  0.05362771  0.29221259  0.95501945     0.15090
N2640       N  0.05453606  0.29507140  0.05271792     0.74180
O2641       O  0.07783874  0.18918366  0.94591062    -0.39270
O2642       O  0.05557305  0.19331636  0.91065689    -0.39210
O2643       O  0.06533118  0.30790489  0.07290798    -0.39910
O2644       O  0.04159206  0.30581919  0.04852374    -0.39980
C2645       C  0.06101745  0.27285410  0.52661068    -0.12260
C2646       C  0.06199859  0.24707116  0.54595326     0.04750
C2647       C  0.06196966  0.22535664  0.51225132    -0.07550
C2648       C  0.06056255  0.22999802  0.46067377    -0.08290
C2649       C  0.05980442  0.25583339  0.44114182    -0.02840
C2650       C  0.06004005  0.27746919  0.47504495     0.03970
N2651       N  0.05940045  0.30435851  0.45814195     0.66480
H2652       H  0.06080034  0.28971435  0.55172938     0.15380
H2653       H  0.06080174  0.21314707  0.43556962     0.15090
N2654       N  0.06399121  0.19857084  0.52924764     0.74180
O2655       O  0.04704710  0.31702151  0.46195514    -0.39270
O2656       O  0.07167203  0.31674387  0.44870778    -0.39210
O2657       O  0.05610192  0.18006604  0.51036096    -0.39910
O2658       O  0.07518052  0.19286153  0.55711657    -0.39980
C2659       C  0.11897509  0.25665332  0.27216942    -0.12260
C2660       C  0.10930931  0.25336469  0.31354799     0.04750
C2661       C  0.11559336  0.24832975  0.36149920    -0.07550
C2662       C  0.13159132  0.24859296  0.36723358    -0.08290
C2663       C  0.14127173  0.25318076  0.32613820    -0.02840
C2664       C  0.13492611  0.25609033  0.27765381     0.03970
N2665       N  0.14445652  0.25775937  0.23375763     0.66480
H2666       H  0.11401726  0.25986539  0.23540678     0.15380
H2667       H  0.13654917  0.24580956  0.40410993     0.15090
N2668       N  0.10598033  0.24327405  0.40443843     0.74180
O2669       O  0.15630119  0.24367871  0.23057413    -0.39270
O2670       O  0.13984915  0.26990197  0.19519596    -0.39210
O2671       O  0.09348643  0.23085375  0.39954850    -0.39910
O2672       O  0.11075470  0.24837739  0.44807829    -0.39980
C2673       C  0.05195182  0.86387602  0.93487287    -0.12260
C2674       C  0.06566819  0.84987671  0.93909857     0.04750
C2675       C  0.07974131  0.86380053  0.94062501    -0.07550
C2676       C  0.07962530  0.89152132  0.94181475    -0.08290
C2677       C  0.06588185  0.90572033  0.94067836    -0.02840
C2678       C  0.05185291  0.89172553  0.93528864     0.03970
N2679       N  0.03753355  0.90511314  0.92867110     0.66480
H2680       H  0.04117704  0.85309778  0.93448183     0.15380
H2681       H  0.09041056  0.90224743  0.94311688     0.15090
N2682       N  0.09415280  0.85000479  0.94206735     0.74180
O2683       O  0.02777559  0.89602697  0.89820939    -0.39270
O2684       O  0.03351920  0.92295318  0.95886157    -0.39210
O2685       O  0.09543653  0.82737903  0.92238742    -0.39910
O2686       O  0.10598034  0.86127146  0.95925177    -0.39980
C2687       C  0.04830355  0.11889312  0.85795761    -0.12260
C2688       C  0.05973134  0.10094058  0.84324781     0.04750
C2689       C  0.07007757  0.10858735  0.80477646    -0.07550
C2690       C  0.06931963  0.13415355  0.78462335    -0.08290
C2691       C  0.05805674  0.15197951  0.79987808    -0.02840
C2692       C  0.04705971  0.14419746  0.83617768     0.03970
N2693       N  0.03480664  0.16142786  0.85207701     0.66480
H2694       H  0.04012113  0.11304132  0.88648860     0.15380
H2695       H  0.07747105  0.14003398  0.75591266     0.15090
N2696       N  0.08133658  0.09083154  0.78520742     0.74180
O2697       O  0.02757638  0.15658594  0.89214594    -0.39270
O2698       O  0.03067509  0.18091056  0.82570063    -0.39210
O2699       O  0.07707863  0.07110883  0.75959507    -0.39910
O2700       O  0.09518812  0.09804485  0.78340838    -0.39980
C2701       C  0.07930411  0.89073020  0.43198178    -0.12260
C2702       C  0.06598281  0.90537710  0.44140557     0.04750
C2703       C  0.05216805  0.89153743  0.45217191    -0.07550
C2704       C  0.05225910  0.86356976  0.45457548    -0.08290
C2705       C  0.06572899  0.84918247  0.44613989    -0.02840
C2706       C  0.07935887  0.86305758  0.43474140     0.03970
N2707       N  0.09333475  0.84933918  0.42473910     0.66480
H2708       H  0.08992241  0.90091243  0.42294422     0.15380
H2709       H  0.04178246  0.85296283  0.46357900     0.15090
N2710       N  0.03792976  0.90522366  0.45886551     0.74180
O2711       O  0.09956006  0.85166157  0.38220953    -0.39270
O2712       O  0.10099096  0.83993107  0.46066151    -0.39210
O2713       O  0.03401949  0.92316755  0.42846671    -0.39910
O2714       O  0.02823262  0.89668629  0.49021339    -0.39980
C2715       C  0.06444787  0.98353683  0.62522341    -0.12260
C2716       C  0.06167711  0.00890590  0.60568903     0.04750
C2717       C  0.05767110  0.02950117  0.63946849    -0.07550
C2718       C  0.05711007  0.02444610  0.69098901    -0.08290
C2719       C  0.05998979  0.99915956  0.71045086    -0.02840
C2720       C  0.06356963  0.97831486  0.67670037     0.03970
N2721       N  0.06666997  0.95181623  0.69343742     0.66480
H2722       H  0.06729239  0.96735709  0.60031196     0.15380
H2723       H  0.05409132  0.04050433  0.71597040     0.15090
N2724       N  0.05358564  0.05548240  0.62259744     0.74180
O2725       O  0.05991154  0.93252994  0.67279533    -0.39270
O2726       O  0.07817630  0.94733110  0.72068203    -0.39210
O2727       O  0.04057337  0.05906388  0.60324599    -0.39910
O2728       O  0.06113656  0.07529456  0.63785087    -0.39980
C2729       C  0.06470745  0.98050898  0.17966891    -0.12260
C2730       C  0.06022560  0.00184366  0.21020131     0.04750
C2731       C  0.05821915  0.02701472  0.18777028    -0.07550
C2732       C  0.06085546  0.03013911  0.13619669    -0.08290
C2733       C  0.06523593  0.00873605  0.10552450    -0.02840
C2734       C  0.06746680  0.98367583  0.12825267     0.03970
N2735       N  0.07291287  0.96133252  0.10040060     0.66480
H2736       H  0.06686233  0.96125592  0.19620805     0.15380
H2737       H  0.05882420  0.04945683  0.11978468     0.15090
N2738       N  0.05315077  0.04947721  0.21616725     0.74180
O2739       O  0.08562884  0.96276916  0.07798943    -0.39270
O2740       O  0.06646876  0.93901152  0.10542622    -0.39210
O2741       O  0.05925245  0.07194111  0.20916859    -0.39910
O2742       O  0.04123709  0.04773510  0.24284102    -0.39980
C2743       C  0.07150166  0.11324052  0.32875188    -0.12260
C2744       C  0.05783212  0.10278981  0.34865654     0.04750
C2745       C  0.04424979  0.11776904  0.34439913    -0.07550
C2746       C  0.04462094  0.14243214  0.32006629    -0.08290
C2747       C  0.05834542  0.15303180  0.30129211    -0.02840
C2748       C  0.07198394  0.13820329  0.30524420     0.03970
N2749       N  0.08624475  0.14768190  0.28445722     0.66480
H2750       H  0.08191753  0.10177479  0.33137394     0.15380
H2751       H  0.03415827  0.15376584  0.31704318     0.15090
N2752       N  0.02993221  0.10816263  0.36356840     0.74180
O2753       O  0.09880223  0.14028560  0.30308464    -0.39270
O2754       O  0.08644140  0.16105320  0.24436237    -0.39210
O2755       O  0.02748200  0.10862526  0.41022301    -0.39910
O2756       O  0.01876412  0.10517557  0.33406653    -0.39980
C2757       C  0.23862596  0.98386623  0.62021230    -0.12260
C2758       C  0.23688292  0.00418942  0.65573070     0.04750
C2759       C  0.24941806  0.02133958  0.66527392    -0.07550
C2760       C  0.26308736  0.01812249  0.63805438    -0.08290
C2761       C  0.26474022  0.99791577  0.60215534    -0.02840
C2762       C  0.25221439  0.98077186  0.59265831     0.03970
N2763       N  0.25283879  0.96095490  0.55391231     0.66480
H2764       H  0.22899633  0.97113765  0.61174479     0.15380
H2765       H  0.27284377  0.03059456  0.64712042     0.15090
N2766       N  0.24874580  0.04114507  0.70397321     0.74180
O2767       O  0.24475004  0.94018898  0.55723312    -0.39270
O2768       O  0.25991639  0.96560852  0.51348678    -0.39210
O2769       O  0.24172444  0.03637509  0.74444891    -0.39910
O2770       O  0.25676276  0.06199093  0.70060022    -0.39980
C2771       C  0.19835573  0.88957820  0.69854864    -0.12260
C2772       C  0.18468173  0.90381719  0.69400027     0.04750
C2773       C  0.17075275  0.88992581  0.68674283    -0.07550
C2774       C  0.17086294  0.86213558  0.68517561    -0.08290
C2775       C  0.18446185  0.84770798  0.69078935    -0.02840
C2776       C  0.19840046  0.86168995  0.69776559     0.03970
N2777       N  0.21269390  0.84813153  0.70309376     0.66480
H2778       H  0.20898619  0.90017435  0.70532068     0.15380
H2779       H  0.16021061  0.85160130  0.67846405     0.15090
N2780       N  0.15649238  0.90368142  0.67988875     0.74180
O2781       O  0.22421529  0.85593575  0.67841613    -0.39270
O2782       O  0.21461492  0.83225980  0.73917533    -0.39210
O2783       O  0.15616411  0.92567393  0.65720745    -0.39910
O2784       O  0.14399503  0.89267883  0.69197355    -0.39980
C2785       C  0.17925687  0.11541314  0.79366228    -0.12260
C2786       C  0.19299898  0.10122688  0.79316058     0.04750
C2787       C  0.20590717  0.11146361  0.81893666    -0.07550
C2788       C  0.20466708  0.13589933  0.84382100    -0.08290
C2789       C  0.19098825  0.15041139  0.84350234    -0.02840
C2790       C  0.17801031  0.13971529  0.81876515     0.03970
N2791       N  0.16333720  0.15243454  0.82075467     0.66480
H2792       H  0.16925872  0.10710967  0.77527291     0.15380
H2793       H  0.21463005  0.14394556  0.86275732     0.15090
N2794       N  0.22010376  0.09718186  0.82207539     0.74180
O2795       O  0.15448539  0.15144285  0.78337656    -0.39270
O2796       O  0.15823222  0.16091730  0.86198934    -0.39210
O2797       O  0.22531081  0.08499674  0.78456554    -0.39910
O2798       O  0.22838647  0.09928892  0.86068261    -0.39980
C2799       C  0.11997293  0.01006679  0.86036533    -0.12260
C2800       C  0.10988722  0.99969908  0.82438306     0.04750
C2801       C  0.11571167  0.99172942  0.77727629    -0.07550
C2802       C  0.13153720  0.99190107  0.76906505    -0.08290
C2803       C  0.14164766  0.00115923  0.80569470    -0.02840
C2804       C  0.13585828  0.01117739  0.85150476     0.03970
N2805       N  0.14584772  0.02158745  0.88980642     0.66480
H2806       H  0.11545885  0.01670690  0.89602494     0.15380
H2807       H  0.13604571  0.98478930  0.73369813     0.15090
N2808       N  0.10570643  0.98471776  0.73671613     0.74180
O2809       O  0.14172597  0.02124320  0.93521137    -0.39270
O2810       O  0.15797112  0.03386077  0.87811894    -0.39210
O2811       O  0.09438684  0.99923749  0.72697208    -0.39910
O2812       O  0.10975604  0.96756876  0.70501605    -0.39980
C2813       C  0.24657119  0.02275035  0.15954854    -0.12260
C2814       C  0.23458112  0.00508786  0.14851197     0.04750
C2815       C  0.23750328  0.98356064  0.11569700    -0.07550
C2816       C  0.25211665  0.98057282  0.09459086    -0.08290
C2817       C  0.26396695  0.99866505  0.10459251    -0.02840
C2818       C  0.26115710  0.01964077  0.13850365     0.03970
N2819       N  0.27319923  0.03694227  0.15469411     0.66480
H2820       H  0.24463464  0.03911188  0.18501476     0.15380
H2821       H  0.25417466  0.96408925  0.06951776     0.15090
N2822       N  0.22571230  0.96517315  0.10143086     0.74180
O2823       O  0.27744081  0.03642105  0.19993668    -0.39270
O2824       O  0.27717986  0.05617812  0.12724412    -0.39210
O2825       O  0.21397764  0.97346001  0.07897410    -0.39910
O2826       O  0.22843356  0.94062782  0.10151415    -0.39980
C2827       C  0.17190643  0.89121572  0.18186336    -0.12260
C2828       C  0.18532012  0.90466499  0.19529734     0.04750
C2829       C  0.19873448  0.89006843  0.20637959    -0.07550
C2830       C  0.19823862  0.86216627  0.20307970    -0.08290
C2831       C  0.18472851  0.84872588  0.18970349    -0.02840
C2832       C  0.17139638  0.86359358  0.17917116     0.03970
N2833       N  0.15711760  0.85097991  0.16674562     0.66480
H2834       H  0.16154328  0.90233786  0.17477955     0.15380
H2835       H  0.20848995  0.85085234  0.21054537     0.15090
N2836       N  0.21273799  0.90289021  0.22200568     0.74180
O2837       O  0.15161314  0.83319642  0.19499223    -0.39270
O2838       O  0.14925147  0.85943805  0.13043511    -0.39210
O2839       O  0.21246825  0.92382402  0.24783260    -0.39910
O2840       O  0.22545651  0.89188929  0.21414694    -0.39980
C2841       C  0.17766703  0.98888422  0.95998628    -0.12260
C2842       C  0.18936220  0.00147486  0.93237146     0.04750
C2843       C  0.20002955  0.01781687  0.95738340    -0.07550
C2844       C  0.19884234  0.02084287  0.00943178    -0.08290
C2845       C  0.18720518  0.00810683  0.03719253    -0.02840
C2846       C  0.17651054  0.99189276  0.01201811     0.03970
N2847       N  0.16414149  0.97913067  0.03807084     0.66480
H2848       H  0.16929090  0.97660075  0.94084141     0.15380
H2849       H  0.20727933  0.03300696  0.02853894     0.15090
N2850       N  0.21254715  0.03029767  0.93141361     0.74180
O2851       O  0.15053803  0.98369847  0.02486731    -0.39270
O2852       O  0.16679803  0.95941001  0.06586536    -0.39210
O2853       O  0.20996785  0.04712774  0.89742798    -0.39910
O2854       O  0.22593773  0.02837938  0.94876401    -0.39980
C2855       C  0.19167099  0.97782030  0.46273414    -0.12260
C2856       C  0.18968466  0.00020625  0.43185256     0.04750
C2857       C  0.18711218  0.02507419  0.45480488    -0.07550
C2858       C  0.18751233  0.02707311  0.50716299    -0.08290
C2859       C  0.18962064  0.00471455  0.53794415    -0.02840
C2860       C  0.19151468  0.97965217  0.51512394     0.03970
N2861       N  0.19361634  0.95589345  0.54395341     0.66480
H2862       H  0.19345954  0.95850568  0.44612576     0.15380
H2863       H  0.18555588  0.04628881  0.52400806     0.15090
N2864       N  0.18309458  0.04814268  0.42623884     0.74180
O2865       O  0.18633793  0.93508938  0.53239544    -0.39270
O2866       O  0.20460557  0.95426729  0.57441952    -0.39210
O2867       O  0.17098036  0.04798201  0.40044017    -0.39910
O2868       O  0.18965807  0.07000095  0.43508920    -0.39980
C2869       C  0.18032983  0.10792416  0.32867925    -0.12260
C2870       C  0.19149496  0.10222750  0.29216745     0.04750
C2871       C  0.20241249  0.12216279  0.27987355    -0.07550
C2872       C  0.20219499  0.14647089  0.30525102    -0.08290
C2873       C  0.19110394  0.15184434  0.34165287    -0.02840
C2874       C  0.17994091  0.13242799  0.35362179     0.03970
N2875       N  0.16820486  0.13704329  0.39068320     0.66480
H2876       H  0.17183531  0.09304252  0.33830491     0.15380
H2877       H  0.21056897  0.16160037  0.29557430     0.15090
N2878       N  0.21365910  0.11845900  0.24142746     0.74180
O2879       O  0.15578023  0.12413476  0.38914851    -0.39270
O2880       O  0.17055805  0.15242117  0.42720298    -0.39210
O2881       O  0.20948290  0.11738112  0.19615053    -0.39910
O2882       O  0.22762562  0.12231679  0.25129221    -0.39980
C2883       C  0.11953732  0.00223911  0.37036203    -0.12260
C2884       C  0.10909377  0.00313685  0.33068514     0.04750
C2885       C  0.11451368  0.00450258  0.28073305    -0.07550
C2886       C  0.13032164  0.00310641  0.27155741    -0.08290
C2887       C  0.14072360  0.00050010  0.31114105    -0.02840
C2888       C  0.13532025  0.00063063  0.36126062     0.03970
N2889       N  0.14555332  0.99856120  0.40325338     0.66480
H2890       H  0.11533114  0.00109673  0.40857985     0.15380
H2891       H  0.13453438  0.00354392  0.23331112     0.15090
N2892       N  0.10414058  0.00740940  0.23926591     0.74180
O2893       O  0.14313741  0.01206723  0.44224487    -0.39270
O2894       O  0.15531493  0.98026879  0.40492955    -0.39210
O2895       O  0.09279886  0.02264683  0.24292580    -0.39910
O2896       O  0.10737137  0.99769613  0.19698169    -0.39980
C2897       C  0.82374482  0.98803751  0.50312897    -0.12260
C2898       C  0.81002995  0.99292956  0.47767034     0.04750
C2899       C  0.79664989  0.99827566  0.50557622    -0.07550
C2900       C  0.79744106  0.00019324  0.55788992    -0.08290
C2901       C  0.81104540  0.99505201  0.58343444    -0.02840
C2902       C  0.82437934  0.98839182  0.55590786     0.03970
N2903       N  0.83857455  0.98214024  0.58049741     0.66480
H2904       H  0.83388299  0.98306979  0.48176179     0.15380
H2905       H  0.78724845  0.00515892  0.57901418     0.15090
N2906       N  0.78208162  0.00105975  0.48174502     0.74180
O2907       O  0.85116016  0.98718252  0.55907341    -0.39270
O2908       O  0.83860583  0.96791695  0.61948978    -0.39210
O2909       O  0.77694840  0.98231473  0.45528563    -0.39910
O2910       O  0.77298683  0.01867055  0.49683489    -0.39980
C2911       C  0.82402017  0.00133251  0.05818054    -0.12260
C2912       C  0.80986405  0.00059713  0.08317555     0.04750
C2913       C  0.79620473  0.99696472  0.05558188    -0.07550
C2914       C  0.79725587  0.99399556  0.00325506    -0.08290
C2915       C  0.81140457  0.99496458  0.97819040    -0.02840
C2916       C  0.82505987  0.99834653  0.00587828     0.03970
N2917       N  0.83994459  0.99815126  0.98228589     0.66480
H2918       H  0.83439060  0.00393636  0.07999667     0.15380
H2919       H  0.78690180  0.99117528  0.98145227     0.15090
N2920       N  0.78133905  0.99611389  0.07937073     0.74180
O2921       O  0.85134232  0.00833148  0.00428682    -0.39270
O2922       O  0.84212622  0.98585813  0.94173415    -0.39210
O2923       O  0.77915997  0.00650520  0.12178609    -0.39910
O2924       O  0.77001203  0.98615823  0.05662437    -0.39980
C2925       C  0.00274917  0.01432463  0.46486904    -0.12260
C2926       C  0.01514089  0.00369462  0.49072500     0.04750
C2927       C  0.01242231  0.98905466  0.53524712    -0.07550
C2928       C  0.99737934  0.98548169  0.55300861    -0.08290
C2929       C  0.98494472  0.99594942  0.52659500    -0.02840
C2930       C  0.98775237  0.00983165  0.48138634     0.03970
N2931       N  0.97552597  0.01639479  0.44842782     0.66480
H2932       H  0.00471091  0.02513876  0.43023623     0.15380
H2933       H  0.99541028  0.97445966  0.58737705     0.15090
N2934       N  0.02483513  0.97898028  0.56429610     0.74180
O2935       O  0.97528669  0.03903437  0.42819059    -0.39270
O2936       O  0.96821909  0.99759414  0.42830615    -0.39210
O2937       O  0.02783837  0.98935017  0.60619560    -0.39910
O2938       O  0.03043679  0.95670668  0.55357973    -0.39980
C2939       C  0.88489132  0.98261189  0.71118992    -0.12260
C2940       C  0.89031869  0.99908000  0.67245677     0.04750
C2941       C  0.87994165  0.01477895  0.64515779    -0.07550
C2942       C  0.86468848  0.01579340  0.66085986    -0.08290
C2943       C  0.85939105  0.00118713  0.70248673    -0.02840
C2944       C  0.86955518  0.98373460  0.72716965     0.03970
N2945       N  0.86496167  0.96870983  0.77054014     0.66480
H2946       H  0.89292738  0.97059736  0.73206215     0.15380
H2947       H  0.85678352  0.02801949  0.63989261     0.15090
N2948       N  0.88470971  0.02966147  0.60154270     0.74180
O2949       O  0.87027407  0.94578612  0.77759891    -0.39270
O2950       O  0.85776473  0.97981810  0.80569001    -0.39210
O2951       O  0.89542373  0.02133507  0.57405495    -0.39910
O2952       O  0.87716873  0.04956478  0.58723191    -0.39980
C2953       C  0.99964978  0.98596869  0.05404523    -0.12260
C2954       C  0.98757142  0.00218310  0.03827029     0.04750
C2955       C  0.99086673  0.02329166  0.00429203    -0.07550
C2956       C  0.00561752  0.02565932  0.98363283    -0.08290
C2957       C  0.01742177  0.00837279  0.99719874    -0.02840
C2958       C  0.01456267  0.98944138  0.03546375     0.03970
N2959       N  0.02681051  0.97585517  0.06015470     0.66480
H2960       H  0.99756039  0.97071197  0.08196283     0.15380
H2961       H  0.00789183  0.04129730  0.95663273     0.15090
N2962       N  0.97965784  0.04269344  0.99028264     0.74180
O2963       O  0.02838393  0.97813749  0.10701885    -0.39270
O2964       O  0.03420023  0.95817561  0.03746909    -0.39210
O2965       O  0.96718642  0.03564467  0.97046787    -0.39910
O2966       O  0.98338433  0.06691020  0.98906799    -0.39980
C2967       C  0.92649001  0.99371120  0.89299265    -0.12260
C2968       C  0.94088800  0.99235241  0.91588063     0.04750
C2969       C  0.95424207  0.99238694  0.88536890    -0.07550
C2970       C  0.95273670  0.99509308  0.83313605    -0.08290
C2971       C  0.93835908  0.99707163  0.81051855    -0.02840
C2972       C  0.92502605  0.99587749  0.84069229     0.03970
N2973       N  0.90995856  0.99608683  0.81912777     0.66480
H2974       H  0.91627546  0.99312571  0.91609505     0.15380
H2975       H  0.96290331  0.99578041  0.80981982     0.15090
N2976       N  0.96938810  0.99048323  0.90619766     0.74180
O2977       O  0.89967162  0.98094943  0.83651851    -0.39270
O2978       O  0.90630631  0.01365410  0.78767883    -0.39210
O2979       O  0.97231443  0.97356195  0.93967429    -0.39910
O2980       O  0.98036142  0.00298258  0.88603126    -0.39980
C2981       C  0.94101524  0.02341775  0.39637309    -0.12260
C2982       C  0.93362510  0.00091222  0.41618900     0.04750
C2983       C  0.92703517  0.98237296  0.38283978    -0.07550
C2984       C  0.92924173  0.98566535  0.33093555    -0.08290
C2985       C  0.93836146  0.00635983  0.31137291    -0.02840
C2986       C  0.94427747  0.02558193  0.34491899     0.03970
N2987       N  0.95443645  0.04631323  0.32814333     0.66480
H2988       H  0.94578463  0.03801318  0.42173854     0.15380
H2989       H  0.92333519  0.97242767  0.30554936     0.15090
N2990       N  0.91758688  0.96089414  0.40088184     0.74180
O2991       O  0.95399352  0.06889262  0.34839649    -0.39270
O2992       O  0.96544836  0.04091048  0.29928387    -0.39210
O2993       O  0.90898925  0.96410691  0.43844866    -0.39910
O2994       O  0.91663994  0.93953191  0.37650219    -0.39980
C2995       C  0.86743557  0.02859457  0.21342721    -0.12260
C2996       C  0.85929610  0.00482658  0.20802847     0.04750
C2997       C  0.86731253  0.98172034  0.19334993    -0.07550
C2998       C  0.88323740  0.98342952  0.18378374    -0.08290
C2999       C  0.89125384  0.00766927  0.18790125    -0.02840
C3000       C  0.88301804  0.03036473  0.20375016     0.03970
N3001       N  0.89012187  0.05578744  0.20994970     0.66480
H3002       H  0.86158971  0.04640606  0.22540855     0.15380
H3003       H  0.88930020  0.96584718  0.17198499     0.15090
N3004       N  0.85953661  0.95685953  0.18580942     0.74180
O3005       O  0.88703558  0.07421541  0.17960062    -0.39270
O3006       O  0.89664744  0.06129894  0.25088349    -0.39210
O3007       O  0.84711496  0.95599671  0.16169006    -0.39910
O3008       O  0.86612520  0.93541581  0.19680713    -0.39980
C3009       C  0.80067304  0.86673562  0.66297312    -0.12260
C3010       C  0.81226014  0.84854846  0.67534312     0.04750
C3011       C  0.82300563  0.85559263  0.71295721    -0.07550
C3012       C  0.82159128  0.87990502  0.73783569    -0.08290
C3013       C  0.80998647  0.89776226  0.72547293    -0.02840
C3014       C  0.79938687  0.89130999  0.68728762     0.03970
N3015       N  0.78750939  0.90937323  0.67192899     0.66480
H3016       H  0.79235031  0.86166712  0.63442403     0.15380
H3017       H  0.82995340  0.88531342  0.76611970     0.15090
N3018       N  0.83574499  0.83898548  0.72519934     0.74180
O3019       O  0.78184075  0.90777658  0.62846517    -0.39270
O3020       O  0.78187415  0.92577155  0.70236846    -0.39210
O3021       O  0.84537156  0.83315998  0.69170945    -0.39910
O3022       O  0.83893659  0.83440131  0.77056306    -0.39980
C3023       C  0.79742298  0.75283911  0.83400709    -0.12260
C3024       C  0.81165356  0.74870671  0.81170802     0.04750
C3025       C  0.82483182  0.74603882  0.84215459    -0.07550
C3026       C  0.82335952  0.74718694  0.89450507    -0.08290
C3027       C  0.80911849  0.75156805  0.91678532    -0.02840
C3028       C  0.79600474  0.75416246  0.88625104     0.03970
N3029       N  0.78107206  0.75629817  0.90783059     0.66480
H3030       H  0.78728657  0.75404802  0.81069740     0.15380
H3031       H  0.83346804  0.74583908  0.91790592     0.15090
N3032       N  0.83979532  0.74328532  0.82063587     0.74180
O3033       O  0.77114942  0.77072291  0.88710069    -0.39270
O3034       O  0.77692621  0.73981172  0.94087879    -0.39210
O3035       O  0.84390791  0.75852841  0.78551037    -0.39910
O3036       O  0.84979568  0.72961328  0.84279809    -0.39980
C3037       C  0.81056701  0.77568220  0.38704610    -0.12260
C3038       C  0.81081284  0.75298280  0.41779137     0.04750
C3039       C  0.80971977  0.72776307  0.39510095    -0.07550
C3040       C  0.80851461  0.72593323  0.34287818    -0.08290
C3041       C  0.80842608  0.74864547  0.31196543    -0.02840
C3042       C  0.80963757  0.77382181  0.33481426     0.03970
N3043       N  0.81109197  0.79761438  0.30584420     0.66480
H3044       H  0.81163146  0.79522052  0.40354559     0.15380
H3045       H  0.80759435  0.70635234  0.32651041     0.15090
N3046       N  0.80936518  0.70380821  0.42413530     0.74180
O3047       O  0.80201385  0.81656290  0.31335935    -0.39270
O3048       O  0.82324668  0.80177057  0.28139090    -0.39210
O3049       O  0.79851370  0.69964184  0.45447060    -0.39910
O3050       O  0.81816681  0.68497303  0.41292635    -0.39980
C3051       C  0.81837956  0.85573199  0.20971668    -0.12260
C3052       C  0.80755015  0.85094885  0.17169806     0.04750
C3053       C  0.79731425  0.87148107  0.15828098    -0.07550
C3054       C  0.79839614  0.89605641  0.18234462    -0.08290
C3055       C  0.80910701  0.90050412  0.22040800    -0.02840
C3056       C  0.81922945  0.88012418  0.23478906     0.03970
N3057       N  0.83023014  0.88349304  0.27471891     0.66480
H3058       H  0.82653469  0.84050466  0.21931156     0.15380
H3059       H  0.79051789  0.91168983  0.17213060     0.15090
N3060       N  0.78545204  0.86765480  0.12175199     0.74180
O3061       O  0.83523986  0.86352510  0.29801672    -0.39270
O3062       O  0.83564991  0.90605246  0.28526458    -0.39210
O3063       O  0.77566961  0.84939563  0.12781461    -0.39910
O3064       O  0.78310410  0.88520007  0.08884392    -0.39980
C3065       C  0.00094477  0.75414849  0.82651558    -0.12260
C3066       C  0.98892754  0.75474493  0.86112418     0.04750
C3067       C  0.99215134  0.75018059  0.91264663    -0.07550
C3068       C  0.00734929  0.74630890  0.92826719    -0.08290
C3069       C  0.01935355  0.74592890  0.89371941    -0.02840
C3070       C  0.01607769  0.74967686  0.84218551     0.03970
N3071       N  0.02801857  0.75008992  0.80547391     0.66480
H3072       H  0.99859163  0.75771971  0.78716890     0.15380
H3073       H  0.00979851  0.74287497  0.96759358     0.15090
N3074       N  0.98019391  0.74861127  0.94947050     0.74180
O3075       O  0.02609823  0.73832558  0.76418534    -0.39270
O3076       O  0.03879021  0.76668811  0.80968768    -0.39210
O3077       O  0.96871938  0.73394868  0.94144432    -0.39910
O3078       O  0.98273904  0.75635471  0.99370574    -0.39980
C3079       C  0.93068086  0.86303964  0.70841221    -0.12260
C3080       C  0.94478316  0.85015468  0.71273433     0.04750
C3081       C  0.95812550  0.86232118  0.69274274    -0.07550
C3082       C  0.95690252  0.88728733  0.66928898    -0.08290
C3083       C  0.94279086  0.90037248  0.66600639    -0.02840
C3084       C  0.92959019  0.88807186  0.68625695     0.03970
N3085       N  0.91489600  0.90041423  0.68371969     0.66480
H3086       H  0.92041788  0.85383170  0.72357468     0.15380
H3087       H  0.96703193  0.89660836  0.65352218     0.15090
N3088       N  0.97278084  0.84944243  0.69427711     0.74180
O3089       O  0.90436942  0.88967453  0.65835853    -0.39270
O3090       O  0.91150800  0.91816134  0.71505101    -0.39210
O3091       O  0.97374942  0.82468063  0.68844723    -0.39910
O3092       O  0.98493360  0.86310874  0.69563249    -0.39980
C3093       C  0.88445978  0.72267423  0.72315872    -0.12260
C3094       C  0.89274579  0.74610027  0.71463336     0.04750
C3095       C  0.88491646  0.76850346  0.69542014    -0.07550
C3096       C  0.86910673  0.76635105  0.68452196    -0.08290
C3097       C  0.86099931  0.74233302  0.69131957    -0.02840
C3098       C  0.86899475  0.72036957  0.71171261     0.03970
N3099       N  0.86183365  0.69516330  0.72072687     0.66480
H3100       H  0.89014732  0.70543314  0.73857922     0.15380
H3101       H  0.86321358  0.78341418  0.66939706     0.15090
N3102       N  0.89272650  0.79306360  0.68479225     0.74180
O3103       O  0.86689746  0.67489742  0.69873672    -0.39270
O3104       O  0.85337849  0.69214151  0.75874555    -0.39210
O3105       O  0.90525608  0.79312876  0.66119450    -0.39910
O3106       O  0.88599367  0.81480549  0.69193057    -0.39980
C3107       C  0.00942275  0.77479612  0.39049836    -0.12260
C3108       C  0.01205985  0.75046237  0.41495779     0.04750
C3109       C  0.00063864  0.73044192  0.41228460    -0.07550
C3110       C  0.98746441  0.73471664  0.38336981    -0.08290
C3111       C  0.98493427  0.75886057  0.35837330    -0.02840
C3112       C  0.99621961  0.77904911  0.36144850     0.03970
N3113       N  0.99484188  0.80335463  0.33346409     0.66480
H3114       H  0.01827565  0.78993073  0.39056996     0.15380
H3115       H  0.97858724  0.71960740  0.38342833     0.15090
N3116       N  0.00185893  0.70619314  0.44048296     0.74180
O3117       O  0.00102783  0.82439769  0.34939542    -0.39270
O3118       O  0.98918754  0.80315680  0.28987964    -0.39210
O3119       O  0.00667845  0.70664949  0.48512501    -0.39910
O3120       O  0.99626204  0.68491762  0.42340180    -0.39980
C3121       C  0.92573969  0.75321030  0.50361778    -0.12260
C3122       C  0.93950244  0.75667425  0.47754270     0.04750
C3123       C  0.95349013  0.75684814  0.50452624    -0.07550
C3124       C  0.95336655  0.75246772  0.55652838    -0.08290
C3125       C  0.93963746  0.74886547  0.58248328    -0.02840
C3126       C  0.92561208  0.74943789  0.55584565     0.03970
N3127       N  0.91118194  0.74623272  0.58095710     0.66480
H3128       H  0.91502202  0.75341321  0.48316489     0.15380
H3129       H  0.96404992  0.75259694  0.57718975     0.15090
N3130       N  0.96786711  0.76214956  0.48037555     0.74180
O3131       O  0.89981996  0.75984264  0.56743597    -0.39270
O3132       O  0.90907570  0.72691902  0.61031216    -0.39210
O3133       O  0.96928516  0.78224719  0.45250544    -0.39910
O3134       O  0.97978960  0.75071604  0.49579255    -0.39980
C3135       C  0.92865890  0.74613388  0.99564614    -0.12260
C3136       C  0.93914817  0.76473305  0.97660834     0.04750
C3137       C  0.94748625  0.78080953  0.01104201    -0.07550
C3138       C  0.94644196  0.77551351  0.06270127    -0.08290
C3139       C  0.93620107  0.75643148  0.08132128    -0.02840
C3140       C  0.92649516  0.74305547  0.04734635     0.03970
N3141       N  0.91289767  0.73009976  0.06471811     0.66480
H3142       H  0.92134911  0.73517458  0.97010784     0.15380
H3143       H  0.95340848  0.78683375  0.08857866     0.15090
N3144       N  0.95667234  0.80293961  0.99493302     0.74180
O3145       O  0.90849679  0.70871835  0.04471932    -0.39270
O3146       O  0.90338659  0.74367654  0.08904618    -0.39210
O3147       O  0.95019216  0.82259048  0.97490758    -0.39910
O3148       O  0.96992055  0.80609617  0.01289838    -0.39980
C3149       C  0.93490446  0.87397841  0.24625075    -0.12260
C3150       C  0.94142693  0.85237638  0.22180897     0.04750
C3151       C  0.94930080  0.85622107  0.17577348    -0.07550
C3152       C  0.94944852  0.88178096  0.15420412    -0.08290
C3153       C  0.94264200  0.90347552  0.17842201    -0.02840
C3154       C  0.93576114  0.89941311  0.22575468     0.03970
N3155       N  0.93083662  0.92118881  0.25558861     0.66480
H3156       H  0.92948543  0.87117467  0.28251322     0.15380
H3157       H  0.95503814  0.88487077  0.11838092     0.15090
N3158       N  0.95747863  0.83505413  0.15120357     0.74180
O3159       O  0.91755703  0.92108354  0.27424661    -0.39270
O3160       O  0.94071934  0.93742391  0.27157932    -0.39210
O3161       O  0.96108293  0.81424471  0.17464788    -0.39910
O3162       O  0.96262215  0.83829879  0.10732005    -0.39980
C3163       C  0.88239918  0.73297200  0.17271252    -0.12260
C3164       C  0.88796535  0.74919000  0.21166604     0.04750
C3165       C  0.87747062  0.76545547  0.23785611    -0.07550
C3166       C  0.86190857  0.76509345  0.22343234    -0.08290
C3167       C  0.85672386  0.74927698  0.18343808    -0.02840
C3168       C  0.86720752  0.73365966  0.15675981     0.03970
N3169       N  0.86262308  0.71847362  0.11341187     0.66480
H3170       H  0.89006327  0.71948378  0.15394091     0.15380
H3171       H  0.85367227  0.77637445  0.24488775     0.15090
N3172       N  0.88182251  0.77995868  0.28200270     0.74180
O3173       O  0.87012691  0.69831110  0.10038895    -0.39270
O3174       O  0.85228779  0.72694418  0.08452834    -0.39210
O3175       O  0.89312442  0.79562949  0.28114375    -0.39910
O3176       O  0.87304702  0.78008483  0.31966765    -0.39980
C3177       C  0.80141628  0.13889478  0.81663973    -0.12260
C3178       C  0.81560758  0.15201218  0.82055249     0.04750
C3179       C  0.82918377  0.13686525  0.82094952    -0.07550
C3180       C  0.82823488  0.10922127  0.81843724    -0.08290
C3181       C  0.81413559  0.09596863  0.81461989    -0.02840
C3182       C  0.80046053  0.11097868  0.81318180     0.03970
N3183       N  0.78568025  0.09859512  0.80685631     0.66480
H3184       H  0.79101614  0.15047642  0.81689593     0.15380
H3185       H  0.83873126  0.09786561  0.81809636     0.15090
N3186       N  0.84405756  0.14923940  0.82267356     0.74180
O3187       O  0.77386086  0.10948005  0.82440846    -0.39270
O3188       O  0.78408690  0.07859763  0.77891984    -0.39210
O3189       O  0.85486868  0.13830919  0.84617946    -0.39910
O3190       O  0.84689850  0.16941481  0.79606296    -0.39980
C3191       C  0.82610159  0.14100752  0.30550849    -0.12260
C3192       C  0.81228571  0.15252207  0.32051493     0.04750
C3193       C  0.79979541  0.13593672  0.33405981    -0.07550
C3194       C  0.80156677  0.10821191  0.33187472    -0.08290
C3195       C  0.81546385  0.09676017  0.31701458    -0.02840
C3196       C  0.82797655  0.11350102  0.30448272     0.03970
N3197       N  0.84288510  0.10304091  0.29340354     0.66480
H3198       H  0.83589030  0.15367661  0.29758653     0.15380
H3199       H  0.79190415  0.09547300  0.34080270     0.15090
N3200       N  0.78556474  0.14662737  0.35201327     0.74180
O3201       O  0.85136672  0.11439506  0.26144209    -0.39270
O3202       O  0.84845045  0.08493249  0.32047156    -0.39210
O3203       O  0.78024855  0.16771628  0.33362842    -0.39910
O3204       O  0.77745262  0.13354448  0.38263214    -0.39980
C3205       C  0.80364595  0.26712050  0.58343351    -0.12260
C3206       C  0.81401553  0.24942238  0.56194537     0.04750
C3207       C  0.82419995  0.23520806  0.59342525    -0.07550
C3208       C  0.82336613  0.23846211  0.64560642    -0.08290
C3209       C  0.81308107  0.25633789  0.66700506    -0.02840
C3210       C  0.80307680  0.27069259  0.63539888     0.03970
N3211       N  0.79169114  0.28790693  0.65561026     0.66480
H3212       H  0.79570933  0.27786968  0.55981110     0.15380
H3213       H  0.83119758  0.22769266  0.66955311     0.15090
N3214       N  0.83592073  0.21846704  0.57311995     0.74180
O3215       O  0.77787093  0.28048082  0.65641090    -0.39270
O3216       O  0.79493338  0.31195343  0.66345693    -0.39210
O3217       O  0.84419516  0.22665483  0.53739807    -0.39910
O3218       O  0.83962231  0.19745374  0.59575484    -0.39980
C3219       C  0.80361589  0.27112725  0.13656863    -0.12260
C3220       C  0.81274485  0.25478161  0.16696262     0.04750
C3221       C  0.82144323  0.23462745  0.14441774    -0.07550
C3222       C  0.82083661  0.23123927  0.09236925    -0.08290
C3223       C  0.81153777  0.24730499  0.06192429    -0.02840
C3224       C  0.80271875  0.26742530  0.08450177     0.03970
N3225       N  0.79240897  0.28352788  0.05575066     0.66480
H3226       H  0.79664584  0.28631193  0.15376225     0.15380
H3227       H  0.82795069  0.21614354  0.07553101     0.15090
N3228       N  0.83160540  0.21845792  0.17321556     0.74180
O3229       O  0.78346415  0.27292512  0.02436747    -0.39270
O3230       O  0.79076732  0.30772137  0.06636488    -0.39210
O3231       O  0.82628558  0.19964059  0.19932883    -0.39910
O3232       O  0.84579990  0.21945785  0.16449138    -0.39980
C3233       C  0.98749783  0.24111000  0.65609538    -0.12260
C3234       C  0.98634846  0.25799160  0.61414687     0.04750
C3235       C  0.99955907  0.27155371  0.59736240    -0.07550
C3236       C  0.01353065  0.26768833  0.62209113    -0.08290
C3237       C  0.01469940  0.25085430  0.66401906    -0.02840
C3238       C  0.00142493  0.23760138  0.68180766     0.03970
N3239       N  0.00171209  0.22141046  0.72647258     0.66480
H3240       H  0.97725733  0.23140005  0.67020643     0.15380
H3241       H  0.02370366  0.27738801  0.60737634     0.15090
N3242       N  0.99921612  0.28829201  0.55396834     0.74180
O3243       O  0.99138333  0.20423160  0.73405009    -0.39270
O3244       O  0.01112246  0.22629842  0.76122311    -0.39210
O3245       O  0.99312765  0.31083917  0.55684863    -0.39910
O3246       O  0.00788214  0.28327728  0.51733348    -0.39980
C3247       C  0.92352842  0.14103690  0.56427539    -0.12260
C3248       C  0.93751106  0.15481460  0.56662831     0.04750
C3249       C  0.95129168  0.14034954  0.57072191    -0.07550
C3250       C  0.95064720  0.11249532  0.57264576    -0.08290
C3251       C  0.93659483  0.09892230  0.57147085    -0.02840
C3252       C  0.92286662  0.11334973  0.56638516     0.03970
N3253       N  0.90823737  0.10018097  0.56230073     0.66480
H3254       H  0.91300253  0.15200656  0.55932897     0.15380
H3255       H  0.96113294  0.10143068  0.57765475     0.15090
N3256       N  0.96597008  0.15332153  0.57167590     0.74180
O3257       O  0.89623003  0.11146191  0.57741838    -0.39270
O3258       O  0.90703588  0.07853932  0.53888587    -0.39210
O3259       O  0.96863215  0.17136862  0.60324237    -0.39910
O3260       O  0.97702544  0.14360899  0.54752532    -0.39980
C3261       C  0.88407931  0.26619665  0.46194687    -0.12260
C3262       C  0.89286638  0.24385143  0.44930187     0.04750
C3263       C  0.88553993  0.22285366  0.42296379    -0.07550
C3264       C  0.87006316  0.22454500  0.41069146    -0.08290
C3265       C  0.86114852  0.24624370  0.42492693    -0.02840
C3266       C  0.86836625  0.26768089  0.45000233     0.03970
N3267       N  0.85993248  0.29057613  0.46528497     0.66480
H3268       H  0.88941380  0.28267222  0.48137416     0.15380
H3269       H  0.86477215  0.20790552  0.39154180     0.15090
N3270       N  0.89335185  0.19898930  0.40977859     0.74180
O3271       O  0.86127303  0.29913642  0.50953353    -0.39270
O3272       O  0.85376585  0.30513036  0.43257484    -0.39210
O3273       O  0.89616940  0.18201610  0.44334562    -0.39910
O3274       O  0.89441330  0.19245298  0.36424226    -0.39980
C3275       C  0.01427532  0.25864329  0.10966972    -0.12260
C3276       C  0.01515751  0.25050689  0.16009731     0.04750
C3277       C  0.00163771  0.24440298  0.18673352    -0.07550
C3278       C  0.98752779  0.24670645  0.16190530    -0.08290
C3279       C  0.98661488  0.25519577  0.11173150    -0.02840
C3280       C  0.00014809  0.26086642  0.08468556     0.03970
N3281       N  0.99984801  0.26772009  0.03204848     0.66480
H3282       H  0.02479966  0.26217307  0.08909421     0.15380
H3283       H  0.97704530  0.24269267  0.18238112     0.15090
N3284       N  0.00196912  0.23661684  0.23881100     0.74180
O3285       O  0.01163875  0.27717628  0.01101309    -0.39270
O3286       O  0.98843495  0.26187882  0.00511933    -0.39210
O3287       O  0.01267283  0.24428554  0.26720282    -0.39910
O3288       O  0.99081677  0.22409964  0.25781829    -0.39980
C3289       C  0.92243129  0.14143409  0.07656298    -0.12260
C3290       C  0.93652057  0.15440285  0.07008966     0.04750
C3291       C  0.94989673  0.13919199  0.06236477    -0.07550
C3292       C  0.94873687  0.11134348  0.06241368    -0.08290
C3293       C  0.93462318  0.09848635  0.06989625    -0.02840
C3294       C  0.92122064  0.11378952  0.07580063     0.03970
N3295       N  0.90626087  0.10170460  0.07914475     0.66480
H3296       H  0.91210810  0.15311558  0.07998006     0.15380
H3297       H  0.95902489  0.09962949  0.05850011     0.15090
N3298       N  0.96453311  0.15138022  0.05255397     0.74180
O3299       O  0.89556619  0.11343962  0.10175758    -0.39270
O3300       O  0.90311494  0.08127490  0.05378582    -0.39210
O3301       O  0.96906539  0.17084491  0.07832933    -0.39910
O3302       O  0.97384345  0.14043298  0.02298792    -0.39980
C3303       C  0.92790814  0.24162709  0.80476077    -0.12260
C3304       C  0.94124405  0.24818549  0.83156075     0.04750
C3305       C  0.95411366  0.25846901  0.80581638    -0.07550
C3306       C  0.95309635  0.26223597  0.75363287    -0.08290
C3307       C  0.93972759  0.25574865  0.72676663    -0.02840
C3308       C  0.92684457  0.24563533  0.75271226     0.03970
N3309       N  0.91247522  0.24067352  0.72775129     0.66480
H3310       H  0.91801308  0.23422459  0.82510172     0.15380
H3311       H  0.96298481  0.26969932  0.73333187     0.15090
N3312       N  0.96830536  0.26439558  0.83125692     0.74180
O3313       O  0.90299526  0.22431261  0.74608326    -0.39270
O3314       O  0.90833423  0.25496472  0.69132379    -0.39210
O3315       O  0.97189739  0.25243372  0.87115934    -0.39910
O3316       O  0.97800105  0.27984658  0.81138043    -0.39980
C3317       C  0.95297930  0.26742930  0.25249106    -0.12260
C3318       C  0.93979515  0.25880637  0.22663923     0.04750
C3319       C  0.92723179  0.24856551  0.25439269    -0.07550
C3320       C  0.92863982  0.24628121  0.30675247    -0.08290
C3321       C  0.94195639  0.25427408  0.33219978    -0.02840
C3322       C  0.95429834  0.26545410  0.30500173     0.03970
N3323       N  0.96820832  0.27440587  0.32916591     0.66480
H3324       H  0.96239714  0.27586324  0.23119585     0.15380
H3325       H  0.91916957  0.23807224  0.32819999     0.15090
N3326       N  0.91273580  0.24197041  0.23152562     0.74180
O3327       O  0.98015379  0.27858798  0.30356806    -0.39270
O3328       O  0.96850851  0.27972072  0.37539271    -0.39210
O3329       O  0.91205027  0.23137952  0.18878778    -0.39910
O3330       O  0.90049438  0.24458305  0.25621057    -0.39980
C3331       C  0.88682381  0.23654892  0.90896612    -0.12260
C3332       C  0.89228497  0.24963754  0.95194906     0.04750
C3333       C  0.88189979  0.26421382  0.98170986    -0.07550
C3334       C  0.86622973  0.26372953  0.96944555    -0.08290
C3335       C  0.86079941  0.24942098  0.92792404    -0.02840
C3336       C  0.87126650  0.23637894  0.89623638     0.03970
N3337       N  0.86631730  0.22272031  0.85154210     0.66480
H3338       H  0.89482249  0.22605652  0.88523105     0.15380
H3339       H  0.85813162  0.27363261  0.99374963     0.15090
N3340       N  0.88674850  0.27792355  0.02611425     0.74180
O3341       O  0.87442702  0.20458487  0.83293700    -0.39270
O3342       O  0.85469472  0.23044438  0.82761201    -0.39210
O3343       O  0.89670242  0.29609053  0.02308684    -0.39910
O3344       O  0.87905502  0.27559881  0.06601149    -0.39980
C3345       C  0.82133199  0.60524039  0.59994663    -0.12260
C3346       C  0.81046272  0.59566713  0.56619706     0.04750
C3347       C  0.80135251  0.61362654  0.53856269    -0.07550
C3348       C  0.80352738  0.64104764  0.54568752    -0.08290
C3349       C  0.81474309  0.65081061  0.57873664    -0.02840
C3350       C  0.82381611  0.63240020  0.60587218     0.03970
N3351       N  0.83625719  0.64067084  0.63728611     0.66480
H3352       H  0.82873314  0.59142060  0.61937014     0.15380
H3353       H  0.79639041  0.65485149  0.52532175     0.15090
N3354       N  0.79016491  0.60449268  0.50264837     0.74180
O3355       O  0.83722422  0.63186217  0.68152605    -0.39270
O3356       O  0.84772124  0.65207729  0.61783222    -0.39210
O3357       O  0.78387531  0.58201902  0.50734054    -0.39910
O3358       O  0.78575572  0.61961491  0.46779108    -0.39980
C3359       C  0.79757970  0.38520903  0.46602333    -0.12260
C3360       C  0.81174607  0.39800466  0.47294590     0.04750
C3361       C  0.82520765  0.38613936  0.45420316    -0.07550
C3362       C  0.82406126  0.36197791  0.42847443    -0.08290
C3363       C  0.80987720  0.34939421  0.42096324    -0.02840
C3364       C  0.79643533  0.36123907  0.43973649     0.03970
N3365       N  0.78167088  0.34889605  0.43435472     0.66480
H3366       H  0.78722190  0.39429126  0.48009614     0.15380
H3367       H  0.83439632  0.35257383  0.41500752     0.15090
N3368       N  0.84011245  0.39755804  0.46282324     0.74180
O3369       O  0.77269098  0.34783472  0.47144287    -0.39270
O3370       O  0.77649548  0.34380593  0.39123966    -0.39210
O3371       O  0.84343337  0.40733299  0.50502538    -0.39910
O3372       O  0.85060746  0.39471679  0.43072807    -0.39980
C3373       C  0.82612110  0.64020984  0.06932562    -0.12260
C3374       C  0.81179744  0.65254477  0.07214728     0.04750
C3375       C  0.79839286  0.63663208  0.07401527    -0.07550
C3376       C  0.79976970  0.60881777  0.07310685    -0.08290
C3377       C  0.81415516  0.59665695  0.06999004    -0.02840
C3378       C  0.82751928  0.61262913  0.06902855     0.03970
N3379       N  0.84259036  0.60121800  0.06974678     0.66480
H3380       H  0.83643898  0.65227595  0.06980185     0.15380
H3381       H  0.78950816  0.59662820  0.07291623     0.15090
N3382       N  0.78343827  0.64808875  0.07845854     0.74180
O3383       O  0.85361907  0.61296244  0.04835668    -0.39270
O3384       O  0.84532276  0.58125729  0.09689625    -0.39210
O3385       O  0.77944212  0.66657873  0.04942882    -0.39910
O3386       O  0.77341653  0.63696624  0.10555969    -0.39980
C3387       C  0.82488033  0.49967663  0.74795704    -0.12260
C3388       C  0.81065299  0.49797619  0.72440524     0.04750
C3389       C  0.79710416  0.50008699  0.75340307    -0.07550
C3390       C  0.79821474  0.50138795  0.80596317    -0.08290
C3391       C  0.81249963  0.50276304  0.82941834    -0.02840
C3392       C  0.82587133  0.50291587  0.79986962     0.03970
N3393       N  0.84042941  0.50868819  0.82134166     0.66480
H3394       H  0.83528098  0.49907231  0.72578138     0.15380
H3395       H  0.78793534  0.50277870  0.82855751     0.15090
N3396       N  0.78236317  0.50290387  0.73020298     0.74180
O3397       O  0.85004923  0.49030938  0.82615523    -0.39270
O3398       O  0.84503926  0.53243561  0.82071980    -0.39210
O3399       O  0.77040391  0.49586701  0.75345368    -0.39910
O3400       O  0.78103890  0.51695135  0.69124909    -0.39980
C3401       C  0.82065956  0.47500389  0.25277910    -0.12260
C3402       C  0.81103986  0.49130206  0.22419864     0.04750
C3403       C  0.80124191  0.50909771  0.24887655    -0.07550
C3404       C  0.80168805  0.51116624  0.30102642    -0.08290
C3405       C  0.81137775  0.49520828  0.32986669    -0.02840
C3406       C  0.82112206  0.47688979  0.30544326     0.03970
N3407       N  0.83199033  0.46108349  0.33265943     0.66480
H3408       H  0.82815185  0.46122998  0.23379458     0.15380
H3409       H  0.79395059  0.52476882  0.31943793     0.15090
N3410       N  0.78950250  0.52273817  0.22213993     0.74180
O3411       O  0.83542341  0.43827206  0.31703515    -0.39270
O3412       O  0.83992508  0.47126706  0.36722105    -0.39210
O3413       O  0.77966515  0.50921468  0.19880971    -0.39910
O3414       O  0.78671975  0.54670597  0.23185876    -0.39980
C3415       C  0.82115364  0.35724631  0.95397215    -0.12260
C3416       C  0.80828343  0.34885601  0.92649851     0.04750
C3417       C  0.79561251  0.36610059  0.92215388    -0.07550
C3418       C  0.79651044  0.39156984  0.94304750    -0.08290
C3419       C  0.80956571  0.40014528  0.96901857    -0.02840
C3420       C  0.82202021  0.38261576  0.97543320     0.03970
N3421       N  0.83532149  0.38952470  0.00482157     0.66480
H3422       H  0.83085698  0.34412366  0.95775790     0.15380
H3423       H  0.78679949  0.40473211  0.93973674     0.15090
N3424       N  0.78156670  0.35785398  0.89869898     0.74180
O3425       O  0.84268941  0.37164831  0.02738904    -0.39270
O3426       O  0.84058350  0.41286962  0.00507970    -0.39210
O3427       O  0.77547030  0.33595082  0.91051408    -0.39910
O3428       O  0.77401457  0.37411315  0.87267768    -0.39980
C3429       C  0.99783581  0.48333463  0.79817107    -0.12260
C3430       C  0.98555595  0.49753643  0.77820517     0.04750
C3431       C  0.98791117  0.51296556  0.73441780    -0.07550
C3432       C  0.00254134  0.51454371  0.71304328    -0.08290
C3433       C  0.01496914  0.50087636  0.73351458    -0.02840
C3434       C  0.01252347  0.48468854  0.77670857     0.03970
N3435       N  0.02464895  0.47019174  0.80062804     0.66480
H3436       H  0.99589072  0.47071077  0.83055007     0.15380
H3437       H  0.00429650  0.52704546  0.68037422     0.15090
N3438       N  0.97556126  0.52620306  0.70957429     0.74180
O3439       O  0.02453794  0.46728593  0.84768778    -0.39270
O3440       O  0.03310561  0.45524505  0.77508340    -0.39210
O3441       O  0.96760415  0.54281093  0.73314852    -0.39910
O3442       O  0.97473307  0.52558001  0.66231006    -0.39980
C3443       C  0.93264762  0.61587427  0.87102353    -0.12260
C3444       C  0.93763609  0.59959118  0.83129407     0.04750
C3445       C  0.94405532  0.61173846  0.78830717    -0.07550
C3446       C  0.94520305  0.63951259  0.78619145    -0.08290
C3447       C  0.93978900  0.65562301  0.82526321    -0.02840
C3448       C  0.93350428  0.64366834  0.86856553     0.03970
N3449       N  0.92717923  0.65911925  0.90891750     0.66480
H3450       H  0.92790308  0.60686093  0.90457161     0.15380
H3451       H  0.94949910  0.64876880  0.75218737     0.15090
N3452       N  0.94827336  0.59661623  0.74499637     0.74180
O3453       O  0.91636222  0.64985259  0.93521799    -0.39270
O3454       O  0.93317820  0.68093725  0.92143558    -0.39210
O3455       O  0.93879575  0.58049104  0.72618659    -0.39910
O3456       O  0.96003832  0.60300577  0.72011045    -0.39980
C3457       C  0.93035091  0.38871111  0.93228777    -0.12260
C3458       C  0.94432862  0.40201140  0.92545121     0.04750
C3459       C  0.95811975  0.38965914  0.94018326    -0.07550
C3460       C  0.95744730  0.36405299  0.96112518    -0.08290
C3461       C  0.94344004  0.35057445  0.96717817    -0.02840
C3462       C  0.92976658  0.36305112  0.95209755     0.03970
N3463       N  0.91514679  0.35039914  0.95808451     0.66480
H3464       H  0.91977498  0.39814339  0.92099723     0.15380
H3465       H  0.96792397  0.35463212  0.97330260     0.15090
N3466       N  0.97271001  0.40298835  0.93609234     0.74180
O3467       O  0.90493608  0.36153490  0.98392009    -0.39270
O3468       O  0.91138634  0.33166810  0.92921139    -0.39210
O3469       O  0.97377300  0.42770684  0.94269852    -0.39910
O3470       O  0.98483026  0.38970475  0.93148404    -0.39980
C3471       C  0.88624167  0.48538378  0.97255112    -0.12260
C3472       C  0.89188112  0.50043033  0.93207217     0.04750
C3473       C  0.88183965  0.51576746  0.90306492    -0.07550
C3474       C  0.86666734  0.51788661  0.91837305    -0.08290
C3475       C  0.86082448  0.50344350  0.95921906    -0.02840
C3476       C  0.87071244  0.48670312  0.98674073     0.03970
N3477       N  0.86568548  0.47309684  0.03135096     0.66480
H3478       H  0.89418636  0.47421692  0.99541118     0.15380
H3479       H  0.85924252  0.53097073  0.89785667     0.15090
N3480       N  0.88693610  0.52935715  0.85830837     0.74180
O3481       O  0.87210800  0.45187653  0.04473281    -0.39270
O3482       O  0.85660402  0.48420958  0.06142878    -0.39210
O3483       O  0.89749340  0.51974935  0.83169180    -0.39910
O3484       O  0.87975739  0.54924539  0.84204669    -0.39980
C3485       C  0.98947897  0.51867007  0.24950508    -0.12260
C3486       C  0.98815009  0.49980695  0.28834356     0.04750
C3487       C  0.00121439  0.48522013  0.30258070    -0.07550
C3488       C  0.01498516  0.48906549  0.27585084    -0.08290
C3489       C  0.01620906  0.50750917  0.23623861    -0.02840
C3490       C  0.00324799  0.52256917  0.22293718     0.03970
N3491       N  0.00358668  0.54075288  0.18117399     0.66480
H3492       H  0.97938268  0.52936001  0.23761669     0.15380
H3493       H  0.02511883  0.47846003  0.28765707     0.15090
N3494       N  0.00094854  0.46759909  0.34526526     0.74180
O3495       O  0.01171553  0.53595170  0.14311415    -0.39270
O3496       O  0.99434588  0.55987640  0.17944418    -0.39210
O3497       O  0.99195221  0.47174540  0.38146696    -0.39910
O3498       O  0.01101746  0.44991949  0.34995743    -0.39980
C3499       C  0.93111163  0.63802249  0.27682084    -0.12260
C3500       C  0.93766221  0.65497337  0.31310531     0.04750
C3501       C  0.94558017  0.64363310  0.35402762    -0.07550
C3502       C  0.94651397  0.61591551  0.35770888    -0.08290
C3503       C  0.93952635  0.59925305  0.32221533    -0.02840
C3504       C  0.93181174  0.61036338  0.28091954     0.03970
N3505       N  0.92403755  0.59415152  0.24430068     0.66480
H3506       H  0.92525835  0.64637390  0.24471493     0.15380
H3507       H  0.95198745  0.60721210  0.39025704     0.15090
N3508       N  0.95186819  0.65954841  0.39365196     0.74180
O3509       O  0.91260826  0.60309451  0.22090121    -0.39270
O3510       O  0.92920687  0.57176014  0.23217170    -0.39210
O3511       O  0.94348306  0.67591740  0.41634120    -0.39910
O3512       O  0.96470397  0.65371158  0.41223000    -0.39980
C3513       C  0.93989607  0.52044921  0.64979199    -0.12260
C3514       C  0.93616463  0.49541100  0.66946872     0.04750
C3515       C  0.93381317  0.47404980  0.63577123    -0.07550
C3516       C  0.93598467  0.47811561  0.58410045    -0.08290
C3517       C  0.93999369  0.50312608  0.56458310    -0.02840
C3518       C  0.94222584  0.52446396  0.59834499     0.03970
N3519       N  0.94770205  0.54993129  0.58171037     0.66480
H3520       H  0.94209826  0.53680460  0.67494414     0.15380
H3521       H  0.93383280  0.46174876  0.55877627     0.15090
N3522       N  0.92861214  0.44847638  0.65283920     0.74180
O3523       O  0.94257863  0.57081736  0.60139906    -0.39270
O3524       O  0.95933988  0.55145230  0.55370774    -0.39210
O3525       O  0.91775207  0.44677479  0.68398429    -0.39910
O3526       O  0.93319997  0.42770108  0.63136505    -0.39980
C3527       C  0.92812444  0.50286551  0.14675621    -0.12260
C3528       C  0.94195871  0.49567160  0.16923192     0.04750
C3529       C  0.95511523  0.49180049  0.13878219    -0.07550
C3530       C  0.95398427  0.49563916  0.08674974    -0.08290
C3531       C  0.94018155  0.50301772  0.06446823    -0.02840
C3532       C  0.92699038  0.50642507  0.09471980     0.03970
N3533       N  0.91225115  0.51227493  0.07349942     0.66480
H3534       H  0.91806550  0.50559109  0.16997779     0.15380
H3535       H  0.96398889  0.49286027  0.06330848     0.15090
N3536       N  0.96980204  0.48505213  0.15949435     0.74180
O3537       O  0.90038915  0.50129470  0.09122405    -0.39270
O3538       O  0.91072380  0.53115005  0.04284654    -0.39210
O3539       O  0.97099428  0.46653562  0.19107663    -0.39910
O3540       O  0.98184291  0.49415238  0.13945803    -0.39980
C3541       C  0.95457697  0.38592720  0.42191133    -0.12260
C3542       C  0.94135205  0.40159528  0.42217905     0.04750
C3543       C  0.92772484  0.39125594  0.44376343    -0.07550
C3544       C  0.92806802  0.36646947  0.46767545    -0.08290
C3545       C  0.94148191  0.35148581  0.46939753    -0.02840
C3546       C  0.95483713  0.36098116  0.44510949     0.03970
N3547       N  0.96851333  0.34537096  0.44163116     0.66480
H3548       H  0.96497228  0.39341816  0.40460649     0.15380
H3549       H  0.91770897  0.35858526  0.48462516     0.15090
N3550       N  0.91336138  0.40490226  0.43995429     0.74180
O3551       O  0.97615013  0.34532000  0.40140172    -0.39270
O3552       O  0.97415201  0.33468670  0.48015452    -0.39210
O3553       O  0.90943826  0.41542424  0.39894937    -0.39910
O3554       O  0.90350511  0.40243451  0.47432857    -0.39980
C3555       C  0.88194325  0.52236206  0.40596315    -0.12260
C3556       C  0.89144450  0.50486741  0.43206130     0.04750
C3557       C  0.88477358  0.48682725  0.46696319    -0.07550
C3558       C  0.86880315  0.48752449  0.47526657    -0.08290
C3559       C  0.85941727  0.50591460  0.45055420    -0.02840
C3560       C  0.86611010  0.52280126  0.41383925     0.03970
N3561       N  0.85703142  0.54001198  0.38301890     0.66480
H3562       H  0.88693626  0.53581383  0.37860664     0.15380
H3563       H  0.86375254  0.47444145  0.50307833     0.15090
N3564       N  0.89388194  0.46887444  0.49641997     0.74180
O3565       O  0.86166781  0.56323822  0.37347152    -0.39270
O3566       O  0.84582988  0.53072031  0.35870854    -0.39210
O3567       O  0.90719667  0.47528439  0.51025344    -0.39910
O3568       O  0.88786360  0.44817165  0.51468065    -0.39980
C3569       C  0.51207888  0.24420430  0.85267624    -0.12260
C3570       C  0.51436325  0.24923491  0.90405918     0.04750
C3571       C  0.50198942  0.25828448  0.93355817    -0.07550
C3572       C  0.48774123  0.26211214  0.91004224    -0.08290
C3573       C  0.48548517  0.25715537  0.85864197    -0.02840
C3574       C  0.49783040  0.24800649  0.82922012     0.03970
N3575       N  0.49643952  0.24323207  0.77599630     0.66480
H3576       H  0.52165393  0.23725117  0.83050776     0.15380
H3577       H  0.47815046  0.26905933  0.93214005     0.15090
N3578       N  0.50330553  0.26279354  0.98691530     0.74180
O3579       O  0.50826029  0.24220431  0.74877870    -0.39270
O3580       O  0.48359414  0.23885795  0.75599976    -0.39210
O3581       O  0.51613811  0.26654973  0.00744312    -0.39910
O3582       O  0.49143296  0.26385493  0.01388473    -0.39980
C3583       C  0.50501208  0.22887024  0.40562517    -0.12260
C3584       C  0.51635076  0.24845052  0.39981136     0.04750
C3585       C  0.51295922  0.27123583  0.37069634    -0.07550
C3586       C  0.49832141  0.27418533  0.34994466    -0.08290
C3587       C  0.48698346  0.25455135  0.35548875    -0.02840
C3588       C  0.49052784  0.23146646  0.38354489     0.03970
N3589       N  0.47961732  0.21049120  0.39057026     0.66480
H3590       H  0.50749027  0.21108510  0.42693880     0.15380
H3591       H  0.49587609  0.29188900  0.32835208     0.15090
N3592       N  0.52439485  0.29084321  0.35911340     0.74180
O3593       O  0.47675203  0.20219850  0.43431531    -0.39270
O3594       O  0.47605405  0.19614396  0.35364914    -0.39210
O3595       O  0.53628844  0.28414979  0.33560344    -0.39910
O3596       O  0.52117892  0.31513946  0.36233577    -0.39980
C3597       C  0.55936595  0.22774486  0.75875364    -0.12260
C3598       C  0.56238214  0.24964485  0.79003881     0.04750
C3599       C  0.56424905  0.27494256  0.76759037    -0.07550
C3600       C  0.56275460  0.27765154  0.71558323    -0.08290
C3601       C  0.55978470  0.25576219  0.68435734    -0.02840
C3602       C  0.55789241  0.23047019  0.70667231     0.03970
N3603       N  0.55406518  0.20743301  0.67762225     0.66480
H3604       H  0.55756704  0.20824882  0.77489660     0.15380
H3605       H  0.56460765  0.29713069  0.69940721     0.15090
N3606       N  0.56803022  0.29808133  0.79634219     0.74180
O3607       O  0.56089273  0.18584369  0.68555625    -0.39270
O3608       O  0.54230986  0.20748387  0.65010291    -0.39210
O3609       O  0.58035016  0.29880976  0.82103940    -0.39910
O3610       O  0.56076451  0.31931280  0.78922725    -0.39980
C3611       C  0.56918898  0.27093488  0.26991151    -0.12260
C3612       C  0.56313723  0.24737757  0.28983974     0.04750
C3613       C  0.55598986  0.22897780  0.25698498    -0.07550
C3614       C  0.55596944  0.23387331  0.20533062    -0.08290
C3615       C  0.56204396  0.25741358  0.18541426    -0.02840
C3616       C  0.56863104  0.27636829  0.21849519     0.03970
N3617       N  0.57500333  0.30107042  0.20115467     0.66480
H3618       H  0.57451314  0.28535516  0.29450890     0.15380
H3619       H  0.55051406  0.21959506  0.18070842     0.15090
N3620       N  0.54771307  0.20626131  0.27525842     0.74180
O3621       O  0.57208185  0.32219792  0.22447792    -0.39270
O3622       O  0.58563650  0.30121443  0.16913732    -0.39210
O3623       O  0.53651208  0.20946326  0.30453602    -0.39910
O3624       O  0.54943365  0.18405851  0.25431463    -0.39980
C3625       C  0.74772724  0.23179578  0.72486342    -0.12260
C3626       C  0.73615201  0.25018431  0.73537639     0.04750
C3627       C  0.73959207  0.27166333  0.76790015    -0.07550
C3628       C  0.75422506  0.27377019  0.78941198    -0.08290
C3629       C  0.76559159  0.25484714  0.78019306    -0.02840
C3630       C  0.76230492  0.23395408  0.74650355     0.03970
N3631       N  0.77386607  0.21567397  0.73130194     0.66480
H3632       H  0.74543160  0.21541970  0.69965457     0.15380
H3633       H  0.75667796  0.29025297  0.81421456     0.15090
N3634       N  0.72833182  0.29096101  0.78135760     0.74180
O3635       O  0.77807251  0.21512803  0.68600830    -0.39270
O3636       O  0.77744924  0.19680617  0.76003494    -0.39210
O3637       O  0.71631951  0.28372198  0.80394565    -0.39910
O3638       O  0.73179609  0.31529071  0.78044909    -0.39980
C3639       C  0.63186363  0.26284092  0.62018495    -0.12260
C3640       C  0.64159189  0.25368370  0.58238179     0.04750
C3641       C  0.63531251  0.24486105  0.53659300    -0.07550
C3642       C  0.61954040  0.24747376  0.52793207    -0.08290
C3643       C  0.60987941  0.25804744  0.56472539    -0.02840
C3644       C  0.61603598  0.26474243  0.61226350     0.03970
N3645       N  0.60643378  0.27223416  0.65356036     0.66480
H3646       H  0.63665754  0.26921903  0.65569788     0.15380
H3647       H  0.61477897  0.24128612  0.49226563     0.15090
N3648       N  0.64477399  0.23279388  0.49922964     0.74180
O3649       O  0.60806468  0.26096221  0.69553180    -0.39270
O3650       O  0.59836931  0.29284234  0.65096961    -0.39210
O3651       O  0.65395585  0.21479183  0.51196636    -0.39910
O3652       O  0.64220794  0.23675256  0.45322410    -0.39980
C3653       C  0.76232694  0.26287157  0.22905981    -0.12260
C3654       C  0.76496161  0.25792620  0.28034989     0.04750
C3655       C  0.75295665  0.24773796  0.31037586    -0.07550
C3656       C  0.73874123  0.24227880  0.28761758    -0.08290
C3657       C  0.73613692  0.24707607  0.23626025    -0.02840
C3658       C  0.74811917  0.25736673  0.20630063     0.03970
N3659       N  0.74637801  0.26120121  0.15295216     0.66480
H3660       H  0.77170154  0.27016734  0.20610493     0.15380
H3661       H  0.72936056  0.23496456  0.31053969     0.15090
N3662       N  0.75470704  0.24382870  0.36372164     0.74180
O3663       O  0.75537336  0.27650304  0.12946265    -0.39270
O3664       O  0.73701966  0.24727254  0.12816352    -0.39210
O3665       O  0.76442769  0.25709747  0.38830352    -0.39910
O3666       O  0.74543106  0.22913860  0.38743619    -0.39980
C3667       C  0.67699888  0.26445039  0.87067526    -0.12260
C3668       C  0.68856915  0.24881449  0.85000345     0.04750
C3669       C  0.69959842  0.23738673  0.88220777    -0.07550
C3670       C  0.69846408  0.24090217  0.93406244    -0.08290
C3671       C  0.68668715  0.25597566  0.95501972    -0.02840
C3672       C  0.67578451  0.26807846  0.92277562     0.03970
N3673       N  0.66316039  0.28327700  0.94180702     0.66480
H3674       H  0.66853740  0.27322136  0.84611744     0.15380
H3675       H  0.70707826  0.23217414  0.95813103     0.15090
N3676       N  0.71259234  0.22359357  0.86284170     0.74180
O3677       O  0.65775102  0.30207300  0.91611936    -0.39270
O3678       O  0.65594848  0.27563233  0.98024410    -0.39210
O3679       O  0.72577343  0.23360571  0.86802865    -0.39910
O3680       O  0.71134092  0.19942211  0.85139006    -0.39980
C3681       C  0.68306014  0.23155758  0.43410345    -0.12260
C3682       C  0.69261415  0.25107426  0.45498010     0.04750
C3683       C  0.70107964  0.26796588  0.42267082    -0.07550
C3684       C  0.69901790  0.26578530  0.37051390    -0.08290
C3685       C  0.68892408  0.24696230  0.34980750    -0.02840
C3686       C  0.68070120  0.22977489  0.38216229     0.03970
N3687       N  0.66934508  0.21152495  0.36332488     0.66480
H3688       H  0.67668230  0.21852832  0.45864793     0.15380
H3689       H  0.70586023  0.27811267  0.34569017     0.15090
N3690       N  0.71230046  0.28636229  0.44189743     0.74180
O3691       O  0.66624668  0.19052677  0.38723378    -0.39270
O3692       O  0.66087616  0.21808040  0.32704578    -0.39210
O3693       O  0.71991277  0.28072913  0.48069516    -0.39910
O3694       O  0.71604390  0.30662758  0.41673063    -0.39980
C3695       C  0.61385799  0.26311487  0.11178296    -0.12260
C3696       C  0.60907024  0.25570175  0.06353298     0.04750
C3697       C  0.61965880  0.24386397  0.03041100    -0.07550
C3698       C  0.63495507  0.24108655  0.04605781    -0.08290
C3699       C  0.63993350  0.25103005  0.09247873    -0.02840
C3700       C  0.62916579  0.26104129  0.12683505     0.03970
N3701       N  0.63357839  0.26925305  0.17662960     0.66480
H3702       H  0.60553915  0.27067216  0.13796645     0.15380
H3703       H  0.64333277  0.23334405  0.02002697     0.15090
N3704       N  0.61551145  0.23655730  0.97997726     0.74180
O3705       O  0.62495726  0.28409053  0.20203177    -0.39270
O3706       O  0.64530767  0.25969300  0.19738541    -0.39210
O3707       O  0.60596633  0.25012502  0.95554965    -0.39910
O3708       O  0.62286952  0.21873238  0.95736851    -0.39980
C3709       C  0.48613234  0.01498845  0.73597377    -0.12260
C3710       C  0.48525011  0.99862320  0.77877239     0.04750
C3711       C  0.49869674  0.98628104  0.79670592    -0.07550
C3712       C  0.51244704  0.99029290  0.77033630    -0.08290
C3713       C  0.51330773  0.00662129  0.72758250    -0.02840
C3714       C  0.49995410  0.01918526  0.70994837     0.03970
N3715       N  0.50004200  0.03530686  0.66516640     0.66480
H3716       H  0.47574892  0.02380318  0.72156832     0.15380
H3717       H  0.52283183  0.98138701  0.78468129     0.15090
N3718       N  0.49909477  0.97153520  0.84312895     0.74180
O3719       O  0.48943989  0.05170332  0.65733761    -0.39270
O3720       O  0.50973269  0.03136469  0.63086399    -0.39210
O3721       O  0.48820636  0.95646472  0.85601623    -0.39910
O3722       O  0.51098535  0.97214043  0.87003313    -0.39980
C3723       C  0.57298411  0.14195299  0.55484958    -0.12260
C3724       C  0.55912449  0.15525274  0.54757499     0.04750
C3725       C  0.54533034  0.14360067  0.56466345    -0.07550
C3726       C  0.54573226  0.11874996  0.58805784    -0.08290
C3727       C  0.55953626  0.10500153  0.59391588    -0.02840
C3728       C  0.57340763  0.11698510  0.57796307     0.03970
N3729       N  0.58799520  0.10473396  0.58666505     0.66480
H3730       H  0.58359528  0.15123576  0.54279069     0.15380
H3731       H  0.53507516  0.10978690  0.60051864     0.15090
N3732       N  0.53093914  0.15697590  0.56042299     0.74180
O3733       O  0.59870033  0.10764574  0.55524437    -0.39270
O3734       O  0.59091129  0.09429126  0.62864576    -0.39210
O3735       O  0.52550488  0.16213403  0.51768675    -0.39910
O3736       O  0.52234286  0.15869507  0.59834502    -0.39980
C3737       C  0.51277551  0.01093123  0.28408147    -0.12260
C3738       C  0.51477857  0.00907677  0.23184102     0.04750
C3739       C  0.50230740  0.00157317  0.20111705    -0.07550
C3740       C  0.48819560  0.99596311  0.22435240    -0.08290
C3741       C  0.48619739  0.99770293  0.27660863    -0.02840
C3742       C  0.49866141  0.00528559  0.30739540     0.03970
N3743       N  0.49756248  0.00657698  0.36154948     0.66480
H3744       H  0.52251233  0.01659660  0.30696671     0.15380
H3745       H  0.47847729  0.99032835  0.20135005     0.15090
N3746       N  0.50340253  0.00039390  0.14701586     0.74180
O3747       O  0.50945421  0.01006513  0.38770618    -0.39270
O3748       O  0.48491570  0.00389131  0.38393399    -0.39210
O3749       O  0.51618520  0.99960803  0.12503590    -0.39910
O3750       O  0.49140625  0.99980097  0.12060876    -0.39980
C3751       C  0.56957966  0.99128746  0.86609675    -0.12260
C3752       C  0.55933868  0.00976272  0.84606426     0.04750
C3753       C  0.55008513  0.02484600  0.87908741    -0.07550
C3754       C  0.55160824  0.02138719  0.93096953    -0.08290
C3755       C  0.56180678  0.00285330  0.95081954    -0.02840
C3756       C  0.57112967  0.98792098  0.91796491     0.03970
N3757       N  0.58277226  0.97038635  0.93638525     0.66480
H3758       H  0.57693198  0.98014137  0.84121122     0.15380
H3759       H  0.54432857  0.03257417  0.95603233     0.15090
N3760       N  0.53864097  0.04283680  0.86099877     0.74180
O3761       O  0.58564087  0.94915541  0.91332344    -0.39270
O3762       O  0.59178537  0.97798706  0.97050817    -0.39210
O3763       O  0.52915510  0.03532600  0.82822854    -0.39910
O3764       O  0.53632574  0.06439266  0.88366871    -0.39980
C3765       C  0.55694136  0.03087061  0.37653007    -0.12260
C3766       C  0.56305916  0.01089212  0.34566110     0.04750
C3767       C  0.56842439  0.98734703  0.36825408    -0.07550
C3768       C  0.56710451  0.98410485  0.42024927    -0.08290
C3769       C  0.56102977  0.00404431  0.45108400    -0.02840
C3770       C  0.55570848  0.02768983  0.42867631     0.03970
N3771       N  0.54853668  0.04821623  0.45755083     0.66480
H3772       H  0.55242716  0.04878562  0.35980742     0.15380
H3773       H  0.57163702  0.96621205  0.43699299     0.15090
N3774       N  0.57581481  0.96699529  0.33965250     0.74180
O3775       O  0.55105622  0.07228104  0.44707329    -0.39270
O3776       O  0.53804062  0.04245262  0.48835613    -0.39210
O3777       O  0.58656820  0.97295692  0.30995166    -0.39910
O3778       O  0.57329228  0.94288815  0.34970463    -0.39980
C3779       C  0.54488018  0.11368701  0.06940460    -0.12260
C3780       C  0.55836904  0.10443501  0.09168146     0.04750
C3781       C  0.57134782  0.12130915  0.09411191    -0.07550
C3782       C  0.57054221  0.14674377  0.07293115    -0.08290
C3783       C  0.55722113  0.15581990  0.04909604    -0.02840
C3784       C  0.54406807  0.13922668  0.04841103     0.03970
N3785       N  0.52968738  0.14823402  0.02874085     0.66480
H3786       H  0.53481821  0.10100255  0.06899808     0.15380
H3787       H  0.58063586  0.15933302  0.07393552     0.15090
N3788       N  0.58520585  0.11360005  0.11933387     0.74180
O3789       O  0.52091082  0.13223700  0.00622679    -0.39270
O3790       O  0.52468085  0.17078986  0.04062598    -0.39210
O3791       O  0.59077707  0.09083929  0.11303837    -0.39910
O3792       O  0.59293559  0.13066729  0.14310661    -0.39980
C3793       C  0.74021142  0.98063468  0.89944787    -0.12260
C3794       C  0.73613275  0.00725271  0.90740504     0.04750
C3795       C  0.74645777  0.02734348  0.89125694    -0.07550
C3796       C  0.76012727  0.02037597  0.86707411    -0.08290
C3797       C  0.76424960  0.99375055  0.85929863    -0.02840
C3798       C  0.75390267  0.97365774  0.87537848     0.03970
N3799       N  0.75684711  0.94606520  0.86706575     0.66480
H3800       H  0.73239732  0.96485181  0.91020926     0.15380
H3801       H  0.76792194  0.03618143  0.85627927     0.15090
N3802       N  0.74357626  0.05491511  0.90010094     0.74180
O3803       O  0.75469238  0.92955621  0.90207791    -0.39270
O3804       O  0.75877117  0.93768185  0.82293987    -0.39210
O3805       O  0.74135440  0.06301232  0.94427023    -0.39910
O3806       O  0.74589553  0.07164331  0.86557797    -0.39980
C3807       C  0.68470656  0.14951132  0.04970557    -0.12260
C3808       C  0.69301965  0.15344679  0.09441049     0.04750
C3809       C  0.70122547  0.13177469  0.11478323    -0.07550
C3810       C  0.70120803  0.10738068  0.08954658    -0.08290
C3811       C  0.69292693  0.10373027  0.04510784    -0.02840
C3812       C  0.68444649  0.12498402  0.02487064     0.03970
N3813       N  0.67520529  0.12203691  0.98032950     0.66480
H3814       H  0.67834260  0.16578011  0.03354715     0.15380
H3815       H  0.70736051  0.09081074  0.10562086     0.15090
N3816       N  0.70911915  0.13363446  0.16179488     0.74180
O3817       O  0.66375105  0.13675978  0.97351354    -0.39270
O3818       O  0.67890833  0.10605908  0.94611128    -0.39210
O3819       O  0.70169704  0.13867624  0.20124955    -0.39910
O3820       O  0.72259516  0.12496509  0.16552364    -0.39980
C3821       C  0.63286999  0.01678328  0.03841743    -0.12260
C3822       C  0.64204541  0.00179079  0.07094191     0.04750
C3823       C  0.63517443  0.98899322  0.11271911    -0.07550
C3824       C  0.61929662  0.99003368  0.11881970    -0.08290
C3825       C  0.61005125  0.00402853  0.08529889    -0.02840
C3826       C  0.61688274  0.01808636  0.04485720     0.03970
N3827       N  0.60787529  0.03210059  0.00822161     0.66480
H3828       H  0.63813170  0.02670148  0.00663339     0.15380
H3829       H  0.61401598  0.97946276  0.14986384     0.15090
N3830       N  0.64408621  0.97501684  0.14947229     0.74180
O3831       O  0.59612547  0.04479733  0.02112701    -0.39270
O3832       O  0.61252542  0.03408900  0.96349890    -0.39210
O3833       O  0.65620403  0.98527376  0.16659172    -0.39910
O3834       O  0.63877482  0.95436114  0.17010767    -0.39980
C3835       C  0.76139789  0.02108587  0.38400481    -0.12260
C3836       C  0.76352213  0.99843686  0.35401781     0.04750
C3837       C  0.75113689  0.98068174  0.34790979    -0.07550
C3838       C  0.73731046  0.98518123  0.37308688    -0.08290
C3839       C  0.73541343  0.00721698  0.40474731    -0.02840
C3840       C  0.74770566  0.02533905  0.41046259     0.03970
N3841       N  0.74684283  0.04717270  0.44502880     0.66480
H3842       H  0.77089935  0.03459078  0.39018150     0.15380
H3843       H  0.72781301  0.97169849  0.36652609     0.15090
N3844       N  0.75217547  0.95862100  0.31457675     0.74180
O3845       O  0.74040675  0.04413917  0.48711051    -0.39270
O3846       O  0.75442942  0.06813687  0.43691277    -0.39210
O3847       O  0.75497926  0.93583857  0.33175364    -0.39910
O3848       O  0.74784733  0.96112459  0.26967698    -0.39980
C3849       C  0.69330360  0.02883212  0.76223401    -0.12260
C3850       C  0.68746877  0.00832123  0.79302514     0.04750
C3851       C  0.68287041  0.98428006  0.77025458    -0.07550
C3852       C  0.68466053  0.98117776  0.71831998    -0.08290
C3853       C  0.69055292  0.00165345  0.68767561    -0.02840
C3854       C  0.69500539  0.02578230  0.71028065     0.03970
N3855       N  0.70176300  0.04704070  0.68174652     0.66480
H3856       H  0.69723312  0.04723309  0.77882846     0.15380
H3857       H  0.68069179  0.96285130  0.70150113     0.15090
N3858       N  0.67581241  0.96322735  0.79850941     0.74180
O3859       O  0.69832874  0.07076058  0.69139850    -0.39270
O3860       O  0.71275224  0.04248150  0.65228076    -0.39210
O3861       O  0.66443890  0.96802237  0.82621479    -0.39910
O3862       O  0.67921489  0.93942741  0.78944124    -0.39980
C3863       C  0.69806490  0.99057233  0.27287092    -0.12260
C3864       C  0.68759127  0.00871355  0.29282852     0.04750
C3865       C  0.67881696  0.02486320  0.26018706    -0.07550
C3866       C  0.68139533  0.02281166  0.20827495    -0.08290
C3867       C  0.69182990  0.00457776  0.18836434    -0.02840
C3868       C  0.70036330  0.98834125  0.22105513     0.03970
N3869       N  0.71170605  0.97024711  0.20250130     0.66480
H3870       H  0.70502300  0.97883374  0.29810326     0.15380
H3871       H  0.67455998  0.03450908  0.18266532     0.15090
N3872       N  0.66680394  0.04216508  0.27803345     0.74180
O3873       O  0.71987780  0.97639735  0.16510123    -0.39270
O3874       O  0.71470196  0.94931800  0.22653250    -0.39210
O3875       O  0.66338654  0.04349210  0.32395391    -0.39910
O3876       O  0.65847730  0.05441617  0.24709596    -0.39980
C3877       C  0.70297972  0.10821081  0.58259153    -0.12260
C3878       C  0.69193494  0.10290241  0.54593851     0.04750
C3879       C  0.68155802  0.12289056  0.53120051    -0.07550
C3880       C  0.68229590  0.14750855  0.55554810    -0.08290
C3881       C  0.69317789  0.15289337  0.59317625    -0.02840
C3882       C  0.70395600  0.13305971  0.60570344     0.03970
N3883       N  0.71627084  0.13790343  0.64014551     0.66480
H3884       H  0.71116834  0.09301227  0.59250015     0.15380
H3885       H  0.67407908  0.16256642  0.54535467     0.15090
N3886       N  0.67038845  0.11898338  0.49177527     0.74180
O3887       O  0.71944594  0.12081692  0.67314549    -0.39270
O3888       O  0.72575477  0.15631938  0.63128764    -0.39210
O3889       O  0.66666374  0.09609121  0.47701428    -0.39910
O3890       O  0.66386440  0.13868011  0.47199690    -0.39980
C3891       C  0.61557059  0.01658041  0.54632629    -0.12260
C3892       C  0.60964701  0.00184187  0.58664484     0.04750
C3893       C  0.61974063  0.98826890  0.61883449    -0.07550
C3894       C  0.63541536  0.98854616  0.60838713    -0.08290
C3895       C  0.64135370  0.00184768  0.56626992    -0.02840
C3896       C  0.63135311  0.01698080  0.53598603     0.03970
N3897       N  0.63679901  0.03173337  0.49349542     0.66480
H3898       H  0.60781815  0.02720082  0.52184257     0.15380
H3899       H  0.64300894  0.97745724  0.63267251     0.15090
N3900       N  0.61435712  0.97389761  0.66194325     0.74180
O3901       O  0.63015848  0.02926336  0.45171112    -0.39270
O3902       O  0.64576164  0.05111927  0.50009637    -0.39210
O3903       O  0.60474463  0.95536770  0.65674848    -0.39910
O3904       O  0.62132210  0.97617225  0.70320229    -0.39980
C3905       C  0.50582952  0.73048448  0.62836737    -0.12260
C3906       C  0.51314679  0.75000684  0.65762357     0.04750
C3907       C  0.50584849  0.77473278  0.66339101    -0.07550
C3908       C  0.49165657  0.77932944  0.64033916    -0.08290
C3909       C  0.48437118  0.75981262  0.61085806    -0.02840
C3910       C  0.49175678  0.73515302  0.60487421     0.03970
N3911       N  0.48534138  0.71470978  0.57418995     0.66480
H3912       H  0.51130513  0.71157197  0.62202513     0.15380
H3913       H  0.48617070  0.79823056  0.64665281     0.15090
N3914       N  0.51245572  0.79522451  0.69350427     0.74180
O3915       O  0.48738778  0.71532719  0.52733847    -0.39270
O3916       O  0.47965395  0.69423803  0.59434049    -0.39210
O3917       O  0.52045343  0.81314332  0.67302801    -0.39910
O3918       O  0.50799469  0.79816324  0.73816181    -0.39980
C3919       C  0.57010692  0.86246102  0.65740732    -0.12260
C3920       C  0.56159851  0.85195902  0.69704084     0.04750
C3921       C  0.55292589  0.86895343  0.72837385    -0.07550
C3922       C  0.55370534  0.89648633  0.71978037    -0.08290
C3923       C  0.56275885  0.90720675  0.68114746    -0.02840
C3924       C  0.57061974  0.88969891  0.64849021     0.03970
N3925       N  0.57906974  0.89900678  0.60572733     0.66480
H3926       H  0.57655378  0.84931211  0.63329496     0.15380
H3927       H  0.54751128  0.90973773  0.74429528     0.15090
N3928       N  0.54336089  0.85902409  0.76869017     0.74180
O3929       O  0.59271657  0.89166437  0.59927052    -0.39270
O3930       O  0.57210782  0.91021388  0.57011694    -0.39210
O3931       O  0.54490965  0.83588787  0.78596752    -0.39910
O3932       O  0.53325737  0.87368314  0.78780402    -0.39980
C3933       C  0.50776549  0.77018163  0.16153336    -0.12260
C3934       C  0.51465760  0.74554183  0.15260245     0.04750
C3935       C  0.50649358  0.72677091  0.12272791    -0.07550
C3936       C  0.49235442  0.73364701  0.10118056    -0.08290
C3937       C  0.48569138  0.75846621  0.10940482    -0.02840
C3938       C  0.49350668  0.77668297  0.14092497     0.03970
N3939       N  0.48685802  0.80148246  0.15459744     0.66480
H3940       H  0.51352129  0.78483119  0.18458399     0.15380
H3941       H  0.48631873  0.71906331  0.07874662     0.15090
N3942       N  0.51205488  0.70045263  0.11432789     0.74180
O3943       O  0.48209243  0.80485202  0.19881732    -0.39270
O3944       O  0.48833933  0.82123996  0.12584222    -0.39210
O3945       O  0.51407632  0.68516697  0.15125810    -0.39910
O3946       O  0.51137483  0.69063535  0.07085299    -0.39980
C3947       C  0.57736388  0.86483556  0.19512967    -0.12260
C3948       C  0.56339763  0.85094994  0.19704288     0.04750
C3949       C  0.54953242  0.86542475  0.19606268    -0.07550
C3950       C  0.55014652  0.89337610  0.19276652    -0.08290
C3951       C  0.56421069  0.90705129  0.19131220    -0.02840
C3952       C  0.57794972  0.89247761  0.19289608     0.03970
N3953       N  0.59262997  0.90549687  0.19316999     0.66480
H3954       H  0.58804488  0.85403882  0.19674306     0.15380
H3955       H  0.53959841  0.90450998  0.19077882     0.15090
N3956       N  0.53486934  0.85243656  0.19982726     0.74180
O3957       O  0.59514791  0.92459360  0.22263138    -0.39270
O3958       O  0.60349731  0.89651158  0.16714946    -0.39210
O3959       O  0.53275372  0.83399050  0.23119825    -0.39910
O3960       O  0.52347461  0.86173686  0.17677385    -0.39980
C3961       C  0.56730680  0.77196540  0.02121495    -0.12260
C3962       C  0.56357020  0.74688831  0.04060932     0.04750
C3963       C  0.55971873  0.72621883  0.00671512    -0.07550
C3964       C  0.55945059  0.73131409  0.95511992    -0.08290
C3965       C  0.56289909  0.75652064  0.93576999    -0.02840
C3966       C  0.56735906  0.77689819  0.96952055     0.03970
N3967       N  0.57271587  0.80228496  0.95231688     0.66480
H3968       H  0.57064668  0.78781113  0.04639925     0.15380
H3969       H  0.55614566  0.71539868  0.93004660     0.15090
N3970       N  0.55543337  0.70019379  0.02358582     0.74180
O3971       O  0.56768890  0.82315584  0.97231440    -0.39270
O3972       O  0.58447583  0.80369089  0.92485257    -0.39210
O3973       O  0.54371826  0.69716084  0.05074878    -0.39910
O3974       O  0.56141370  0.68011172  0.00353230    -0.39980
C3975       C  0.56295611  0.73119308  0.45613100    -0.12260
C3976       C  0.56034015  0.75640664  0.43553608     0.04750
C3977       C  0.55827430  0.77819737  0.46838163    -0.07550
C3978       C  0.55925075  0.77425850  0.52037298    -0.08290
C3979       C  0.56186605  0.74903167  0.54085258    -0.02840
C3980       C  0.56393388  0.72739098  0.50801093     0.03970
N3981       N  0.56744715  0.70150317  0.52657165     0.66480
H3982       H  0.56492079  0.71438044  0.43176507     0.15380
H3983       H  0.55723302  0.79093253  0.54500967     0.15090
N3984       N  0.55455129  0.80417362  0.45003223     0.74180
O3985       O  0.55852897  0.68233485  0.51771032    -0.39270
O3986       O  0.57952158  0.69768759  0.55147322    -0.39210
O3987       O  0.54382808  0.80704469  0.41879756    -0.39910
O3988       O  0.56030196  0.82445239  0.47055146    -0.39980
C3989       C  0.73892894  0.73113200  0.03164555    -0.12260
C3990       C  0.73413623  0.74603087  0.98975829     0.04750
C3991       C  0.74313283  0.76781496  0.97381011    -0.07550
C3992       C  0.75659472  0.77406898  0.00004273    -0.08290
C3993       C  0.76180518  0.75829714  0.04007162    -0.02840
C3994       C  0.75256659  0.73713563  0.05742274     0.03970
N3995       N  0.75635842  0.72273407  0.10245229     0.66480
H3996       H  0.73160977  0.71538577  0.04579364     0.15380
H3997       H  0.76378223  0.79007815  0.98618059     0.15090
N3998       N  0.73933814  0.78267384  0.92942601     0.74180
O3999       O  0.75047055  0.70023070  0.11083144    -0.39270
O4000       O  0.76377670  0.73394281  0.13715713    -0.39210
O4001       O  0.74301689  0.80685508  0.92602403    -0.39910
O4002       O  0.73446212  0.77084344  0.89085992    -0.39980
C4003       C  0.67488699  0.86139310  0.96876554    -0.12260
C4004       C  0.68766842  0.84987040  0.94633215     0.04750
C4005       C  0.69995418  0.86628217  0.92978541    -0.07550
C4006       C  0.69885642  0.89401001  0.93615455    -0.08290
C4007       C  0.68586103  0.90558105  0.95795937    -0.02840
C4008       C  0.67387159  0.88876794  0.97493656     0.03970
N4009       N  0.66024828  0.89913940  0.99699796     0.66480
H4010       H  0.66533228  0.84898740  0.98040535     0.15380
H4011       H  0.70815012  0.90669796  0.92356790     0.15090
N4012       N  0.71333505  0.85556326  0.90553117     0.74180
O4013       O  0.64860768  0.90298301  0.97001695    -0.39270
O4014       O  0.65903338  0.90016566  0.04412929    -0.39210
O4015       O  0.71267819  0.83405573  0.88150416    -0.39910
O4016       O  0.72572739  0.86859303  0.90514465    -0.39980
C4017       C  0.63569073  0.75409430  0.78306856    -0.12260
C4018       C  0.64019800  0.75576408  0.83344049     0.04750
C4019       C  0.62902429  0.75728511  0.87176050    -0.07550
C4020       C  0.61353548  0.75799997  0.85762759    -0.08290
C4021       C  0.60904854  0.75741055  0.80706758    -0.02840
C4022       C  0.62022061  0.75482329  0.76900546     0.03970
N4023       N  0.61632487  0.75430312  0.71640391     0.66480
H4024       H  0.64443982  0.75302763  0.75429161     0.15380
H4025       H  0.60479857  0.75997101  0.88625976     0.15090
N4026       N  0.63297155  0.75879174  0.92440190     0.74180
O4027       O  0.62620521  0.76056031  0.68378008    -0.39270
O4028       O  0.60352918  0.74556718  0.70182184    -0.39210
O4029       O  0.64641594  0.76422065  0.93851426    -0.39910
O4030       O  0.62279804  0.75527393  0.95748674    -0.39980
C4031       C  0.73867389  0.76227106  0.53207945    -0.12260
C4032       C  0.73717209  0.74994637  0.48491317     0.04750
C4033       C  0.75034567  0.73933536  0.46167057    -0.07550
C4034       C  0.76454530  0.74107523  0.48671465    -0.08290
C4035       C  0.76597730  0.75320802  0.53398019    -0.02840
C4036       C  0.75286915  0.76373474  0.55708441     0.03970
N4037       N  0.75371652  0.77474873  0.60671120     0.66480
H4038       H  0.72853304  0.76947067  0.55085125     0.15380
H4039       H  0.77475021  0.73390520  0.46822734     0.15090
N4040       N  0.74965567  0.72766805  0.41235126     0.74180
O4041       O  0.74545518  0.79413351  0.61867108    -0.39270
O4042       O  0.76218317  0.76434874  0.63960369    -0.39210
O4043       O  0.73943803  0.73449326  0.38151895    -0.39910
O4044       O  0.76018165  0.71252690  0.39754101    -0.39980
C4045       C  0.68371539  0.86040033  0.48480661    -0.12260
C4046       C  0.68874081  0.85092527  0.43850192     0.04750
C4047       C  0.69400488  0.86905491  0.40132511    -0.07550
C4048       C  0.69316668  0.89636443  0.41101313    -0.08290
C4049       C  0.68731693  0.90594067  0.45637890    -0.02840
C4050       C  0.68316615  0.88761510  0.49457962     0.03970
N4051       N  0.67885312  0.89614579  0.54391298     0.66480
H4052       H  0.68005485  0.84647594  0.51350985     0.15380
H4053       H  0.69667111  0.91029509  0.38214642     0.15090
N4054       N  0.70057446  0.86052055  0.35438388     0.74180
O4055       O  0.66781791  0.88498002  0.56632042    -0.39270
O4056       O  0.68769594  0.91116764  0.56841503    -0.39210
O4057       O  0.69606577  0.83964701  0.33290562    -0.39910
O4058       O  0.71035582  0.87495829  0.33235045    -0.39980
C4059       C  0.68106327  0.73218171  0.62831649    -0.12260
C4060       C  0.68889097  0.75138928  0.59986226     0.04750
C4061       C  0.69641258  0.77266535  0.62480720    -0.07550
C4062       C  0.69652226  0.77294038  0.67738917    -0.08290
C4063       C  0.68892348  0.75348139  0.70572413    -0.02840
C4064       C  0.68075236  0.73319122  0.68074169     0.03970
N4065       N  0.67130122  0.71453526  0.70735508     0.66480
H4066       H  0.67506287  0.71617054  0.60948760     0.15380
H4067       H  0.70232916  0.78900552  0.69665273     0.15090
N4068       N  0.70417297  0.79388125  0.59859853     0.74180
O4069       O  0.65751390  0.71138735  0.69436279    -0.39270
O4070       O  0.67737412  0.69754812  0.73571624    -0.39210
O4071       O  0.69794476  0.80501688  0.56158787    -0.39910
O4072       O  0.71524847  0.80565892  0.61942955    -0.39980
C4073       C  0.69100666  0.77357235  0.17433544    -0.12260
C4074       C  0.68881892  0.75142416  0.20573747     0.04750
C4075       C  0.68573039  0.72648736  0.18371642    -0.07550
C4076       C  0.68502642  0.72438832  0.13140825    -0.08290
C4077       C  0.68711270  0.74661848  0.10003073    -0.02840
C4078       C  0.69031458  0.77148477  0.12218466     0.03970
N4079       N  0.69358657  0.79464395  0.09271539     0.66480
H4080       H  0.69356995  0.79282550  0.19033097     0.15380
H4081       H  0.68253550  0.70514038  0.11529833     0.15090
N4082       N  0.68262653  0.70333150  0.21343886     0.74180
O4083       O  0.68619921  0.81567668  0.10037180    -0.39270
O4084       O  0.70562823  0.79561222  0.06654567    -0.39210
O4085       O  0.67110883  0.70279124  0.24205135    -0.39910
O4086       O  0.68955808  0.68200973  0.20419701    -0.39980
C4087       C  0.63620363  0.74183097  0.29304829    -0.12260
C4088       C  0.64114395  0.75252745  0.33892820     0.04750
C4089       C  0.63019875  0.76224742  0.37347650    -0.07550
C4090       C  0.61467377  0.76211773  0.35932602    -0.08290
C4091       C  0.60977820  0.75261923  0.31245860    -0.02840
C4092       C  0.62064342  0.74163266  0.27926091     0.03970
N4093       N  0.61636296  0.73181099  0.23060378     0.66480
H4094       H  0.64466469  0.73458590  0.26676120     0.15380
H4095       H  0.60620910  0.77028329  0.38459917     0.15090
N4096       N  0.63443943  0.77257141  0.42225609     0.74180
O4097       O  0.62550892  0.73404042  0.19410804    -0.39270
O4098       O  0.60445698  0.71782501  0.22535633    -0.39210
O4099       O  0.64814523  0.77250090  0.43720211    -0.39910
O4100       O  0.62425047  0.78057490  0.45214778    -0.39980
C4101       C  0.50688185  0.52920783  0.99233671    -0.12260
C4102       C  0.51682001  0.50791006  0.98520652     0.04750
C4103       C  0.51197975  0.48244537  0.00159745    -0.07550
C4104       C  0.49738162  0.47910029  0.02313096    -0.08290
C4105       C  0.48744885  0.50065999  0.03084198    -0.02840
C4106       C  0.49255543  0.52606375  0.01517271     0.03970
N4107       N  0.48368537  0.54935321  0.02237693     0.66480
H4108       H  0.51031104  0.54893487  0.98047060     0.15380
H4109       H  0.49396388  0.45937258  0.03496617     0.15090
N4110       N  0.52190093  0.45998026  0.99934385     0.74180
O4111       O  0.49030353  0.56956629  0.04008012    -0.39270
O4112       O  0.47144242  0.55221289  0.99793321    -0.39210
O4113       O  0.53363998  0.45930289  0.02689002    -0.39910
O4114       O  0.51730588  0.43890567  0.97865193    -0.39980
C4115       C  0.56756593  0.39799953  0.97917028    -0.12260
C4116       C  0.56325625  0.40763608  0.93211446     0.04750
C4117       C  0.55772706  0.38969497  0.89509500    -0.07550
C4118       C  0.55773817  0.36236389  0.90568620    -0.08290
C4119       C  0.56296776  0.35260686  0.95175433    -0.02840
C4120       C  0.56727636  0.37081266  0.98977307     0.03970
N4121       N  0.57088588  0.36219079  0.03974761     0.66480
H4122       H  0.57127163  0.41179363  0.00790647     0.15380
H4123       H  0.55408236  0.34850639  0.87705774     0.15090
N4124       N  0.55158238  0.39843868  0.84760374     0.74180
O4125       O  0.58167203  0.37314713  0.06362136    -0.39270
O4126       O  0.56173419  0.34707485  0.06297487    -0.39210
O4127       O  0.55646479  0.41913060  0.82616737    -0.39910
O4128       O  0.54170417  0.38442657  0.82523008    -0.39980
C4129       C  0.57313244  0.61694596  0.82478761    -0.12260
C4130       C  0.55979236  0.60642773  0.84683241     0.04750
C4131       C  0.54597673  0.62079923  0.84303229    -0.07550
C4132       C  0.54579593  0.64490870  0.81682719    -0.08290
C4133       C  0.55919612  0.65552247  0.79577541    -0.02840
C4134       C  0.57306060  0.64134001  0.79940146     0.03970
N4135       N  0.58699363  0.65091012  0.77646600     0.66480
H4136       H  0.58371434  0.60592075  0.82698735     0.15380
H4137       H  0.53519532  0.65589159  0.81435494     0.15090
N4138       N  0.53199023  0.61116934  0.86466289     0.74180
O4139       O  0.59981943  0.64445052  0.79438640    -0.39270
O4140       O  0.58663149  0.66335765  0.73534006    -0.39210
O4141       O  0.53026801  0.61176049  0.91165907    -0.39910
O4142       O  0.52037480  0.60806432  0.83711527    -0.39980
C4143       C  0.51227809  0.48253089  0.50693831    -0.12260
C4144       C  0.51458336  0.50564920  0.47828832     0.04750
C4145       C  0.50260381  0.52430747  0.47494101    -0.07550
C4146       C  0.48918040  0.52019860  0.50309656    -0.08290
C4147       C  0.48712882  0.49754058  0.53332439    -0.02840
C4148       C  0.49889880  0.47846344  0.53530508     0.03970
N4149       N  0.49777789  0.45558063  0.56752502     0.66480
H4150       H  0.52138220  0.46820043  0.50978280     0.15380
H4151       H  0.47985355  0.53410033  0.49901703     0.15090
N4152       N  0.50354670  0.54667598  0.44137372     0.74180
O4153       O  0.50470704  0.43450891  0.55637121    -0.39270
O4154       O  0.49162918  0.45743971  0.61025082    -0.39210
O4155       O  0.51018622  0.54449819  0.39949952    -0.39910
O4156       O  0.49603201  0.56743367  0.45034175    -0.39980
C4157       C  0.55474582  0.36594836  0.47150677    -0.12260
C4158       C  0.56490267  0.35055174  0.44334244     0.04750
C4159       C  0.57559071  0.36297302  0.41125595    -0.07550
C4160       C  0.57580246  0.39073212  0.40844165    -0.08290
C4161       C  0.56570825  0.40646371  0.43692321    -0.02840
C4162       C  0.55498446  0.39367579  0.46850885     0.03970
N4163       N  0.54458665  0.40834030  0.49894179     0.66480
H4164       H  0.54683144  0.35633809  0.49720656     0.15380
H4165       H  0.58402139  0.40008866  0.38354350     0.15090
N4166       N  0.58650019  0.34795129  0.38245481     0.74180
O4167       O  0.53268826  0.41793720  0.47940318    -0.39270
O4168       O  0.54555344  0.40676443  0.54608234    -0.39210
O4169       O  0.58336777  0.32476362  0.36781926    -0.39910
O4170       O  0.59893883  0.35851858  0.36846664    -0.39980
C4171       C  0.57267205  0.52781540  0.62363647    -0.12260
C4172       C  0.56261941  0.51139194  0.59671385     0.04750
C4173       C  0.55215492  0.49511523  0.62332580    -0.07550
C4174       C  0.55230517  0.49519943  0.67582363    -0.08290
C4175       C  0.56259252  0.51106072  0.70282563    -0.02840
C4176       C  0.57287767  0.52781678  0.67636977     0.03970
N4177       N  0.58409473  0.54383665  0.70171766     0.66480
H4178       H  0.58043080  0.54082386  0.60333314     0.15380
H4179       H  0.54453328  0.48212097  0.69594407     0.15090
N4180       N  0.54101192  0.47893131  0.59818847     0.74180
O4181       O  0.59733955  0.54631068  0.68324954    -0.39270
O4182       O  0.58010300  0.55922881  0.73652036    -0.39210
O4183       O  0.54522303  0.46272666  0.56509918    -0.39910
O4184       O  0.52767955  0.47681170  0.61611731    -0.39980
C4185       C  0.55100868  0.51489909  0.12458061    -0.12260
C4186       C  0.56420445  0.50789182  0.09758464     0.04750
C4187       C  0.57680875  0.49680087  0.12301601    -0.07550
C4188       C  0.57563569  0.49246690  0.17496462    -0.08290
C4189       C  0.56246972  0.49963029  0.20198675    -0.02840
C4190       C  0.54989253  0.51079221  0.17654684     0.03970
N4191       N  0.53584399  0.51717116  0.20214096     0.66480
H4192       H  0.54131908  0.52306757  0.10454340     0.15380
H4193       H  0.58535978  0.48450109  0.19510168     0.15090
N4194       N  0.59101756  0.49117104  0.09770665     0.74180
O4195       O  0.52692811  0.53432722  0.18408790    -0.39270
O4196       O  0.53145097  0.50376577  0.23959176    -0.39210
O4197       O  0.59521930  0.50473334  0.06022632    -0.39910
O4198       O  0.60028843  0.47476046  0.11630892    -0.39980
C4199       C  0.55514310  0.60569200  0.28780788    -0.12260
C4200       C  0.55696408  0.60318282  0.33980896     0.04750
C4201       C  0.55842055  0.62617155  0.36954639    -0.07550
C4202       C  0.55791231  0.65118750  0.34656050    -0.08290
C4203       C  0.55602847  0.65383281  0.29445811    -0.02840
C4204       C  0.55440683  0.63069491  0.26490388     0.03970
N4205       N  0.55250397  0.63205712  0.21158487     0.66480
H4206       H  0.55398242  0.58806595  0.26488997     0.15380
H4207       H  0.55934205  0.66873779  0.36951452     0.15090
N4208       N  0.56106958  0.62449163  0.42263216     0.74180
O4209       O  0.56164376  0.61973929  0.18346699    -0.39270
O4210       O  0.54001570  0.64017944  0.19362584    -0.39210
O4211       O  0.57067434  0.60831028  0.44008387    -0.39910
O4212       O  0.55493195  0.64098224  0.45174736    -0.39980
C4213       C  0.74302841  0.48211269  0.66534084    -0.12260
C4214       C  0.73577465  0.50544078  0.64982669     0.04750
C4215       C  0.74215617  0.51999016  0.60940542    -0.07550
C4216       C  0.75616948  0.51223702  0.58856319    -0.08290
C4217       C  0.76393488  0.48973700  0.60596593    -0.02840
C4218       C  0.75696691  0.47400927  0.64417089     0.03970
N4219       N  0.76394876  0.45037838  0.66354517     0.66480
H4220       H  0.73792336  0.47026282  0.69498889     0.15380
H4221       H  0.76109980  0.52411256  0.55862881     0.15090
N4222       N  0.73406375  0.54143990  0.58646292     0.74180
O4223       O  0.75576957  0.43011859  0.67189497    -0.39270
O4224       O  0.77727141  0.45129293  0.68169831    -0.39210
O4225       O  0.73296986  0.56333854  0.60889875    -0.39910
O4226       O  0.73056349  0.54009951  0.54059478    -0.39980
C4227       C  0.69809933  0.36185281  0.70567675    -0.12260
C4228       C  0.68440853  0.34986567  0.68968958     0.04750
C4229       C  0.67168197  0.36605077  0.67806880    -0.07550
C4230       C  0.67318586  0.39364669  0.68090497    -0.08290
C4231       C  0.68689382  0.40561887  0.69617538    -0.02840
C4232       C  0.69954063  0.38958800  0.70928784     0.03970
N4233       N  0.71365021  0.40084128  0.72783735     0.66480
H4234       H  0.70789171  0.34954274  0.71409067     0.15380
H4235       H  0.66329489  0.40593002  0.67351766     0.15090
N4236       N  0.65697289  0.35487822  0.66569869     0.74180
O4237       O  0.72215245  0.38747347  0.75649099    -0.39270
O4238       O  0.71834513  0.42315671  0.71259672    -0.39210
O4239       O  0.65157619  0.33586108  0.69117635    -0.39910
O4240       O  0.64846230  0.36630560  0.63419816    -0.39980
C4241       C  0.70490524  0.61228241  0.82044959    -0.12260
C4242       C  0.69191835  0.60297643  0.79505645     0.04750
C4243       C  0.67886390  0.61933737  0.79103774    -0.07550
C4244       C  0.67913250  0.64439795  0.81386305    -0.08290
C4245       C  0.69197535  0.65355026  0.84056072    -0.02840
C4246       C  0.70519109  0.63743591  0.84284545     0.03970
N4247       N  0.71914678  0.64655715  0.86574382     0.66480
H4248       H  0.71501072  0.59995458  0.82220991     0.15380
H4249       H  0.66899848  0.65662550  0.81185563     0.15090
N4250       N  0.66545611  0.61144076  0.76310575     0.74180
O4251       O  0.72741147  0.63055796  0.88993353    -0.39270
O4252       O  0.72444794  0.66922305  0.85507853    -0.39210
O4253       O  0.66103661  0.58758592  0.76225572    -0.39910
O4254       O  0.65719431  0.62878855  0.74250151    -0.39980
C4255       C  0.62050302  0.48124113  0.85795000    -0.12260
C4256       C  0.61234122  0.50329755  0.84085885     0.04750
C4257       C  0.62046066  0.52452923  0.81790368    -0.07550
C4258       C  0.63622055  0.52163170  0.80811443    -0.08290
C4259       C  0.64418124  0.49871091  0.82274651    -0.02840
C4260       C  0.63622434  0.47896196  0.85049301     0.03970
N4261       N  0.64384905  0.45659153  0.87218524     0.66480
H4262       H  0.61452448  0.46537884  0.87748270     0.15380
H4263       H  0.64227655  0.53740760  0.78870420     0.15090
N4264       N  0.61305896  0.54870578  0.80328236     0.74180
O4265       O  0.65425658  0.46023645  0.90432666    -0.39270
O4266       O  0.63845369  0.43354990  0.86604680    -0.39210
O4267       O  0.60513399  0.56119696  0.83484493    -0.39910
O4268       O  0.61734352  0.56063905  0.76398088    -0.39980
C4269       C  0.76057525  0.52160574  0.11629736    -0.12260
C4270       C  0.76368192  0.49571182  0.09954293     0.04750
C4271       C  0.75242067  0.47579071  0.10682956    -0.07550
C4272       C  0.73898284  0.48185486  0.13331065    -0.08290
C4273       C  0.73628876  0.50740047  0.15254492    -0.02840
C4274       C  0.74745534  0.52740623  0.14449276     0.03970
N4275       N  0.74622482  0.55311860  0.16731425     0.66480
H4276       H  0.76917785  0.53701676  0.11204343     0.15380
H4277       H  0.73026044  0.46660983  0.13702409     0.15090
N4278       N  0.75412863  0.44967955  0.08613968     0.74180
O4279       O  0.74232621  0.55504310  0.21278092    -0.39270
O4280       O  0.75140168  0.57337869  0.14498217    -0.39210
O4281       O  0.74876842  0.42976204  0.10910709    -0.39910
O4282       O  0.75906964  0.44684065  0.04196383    -0.39980
C4283       C  0.70009298  0.39356922  0.19708766    -0.12260
C4284       C  0.68597460  0.40675250  0.19697831     0.04750
C4285       C  0.67227340  0.39176435  0.19522526    -0.07550
C4286       C  0.67303033  0.36408366  0.19521884    -0.08290
C4287       C  0.68708058  0.35065060  0.19551400    -0.02840
C4288       C  0.70082860  0.36565879  0.19680038     0.03970
N4289       N  0.71554125  0.35316869  0.19678408     0.66480
H4290       H  0.71060262  0.40502309  0.19960216     0.15380
H4291       H  0.66244094  0.35283163  0.19295219     0.15090
N4292       N  0.65753514  0.40430076  0.19175566     0.74180
O4293       O  0.72616961  0.36244364  0.16970964    -0.39270
O4294       O  0.71877097  0.33639437  0.23027168    -0.39210
O4295       O  0.65586846  0.42495223  0.16550856    -0.39910
O4296       O  0.64581238  0.39311224  0.21000523    -0.39980
C4297       C  0.69606571  0.48542402  0.02086620    -0.12260
C4298       C  0.68948453  0.50874475  0.03946087     0.04750
C4299       C  0.68548725  0.52905810  0.00547370    -0.07550
C4300       C  0.68819189  0.52572467  0.95413854    -0.08290
C4301       C  0.69457453  0.50224345  0.93528086    -0.02840
C4302       C  0.69887590  0.48205857  0.96945432     0.03970
N4303       N  0.70658608  0.45853559  0.95303277     0.66480
H4304       H  0.69980551  0.47021137  0.04680084     0.15380
H4305       H  0.68445005  0.54112793  0.92861782     0.15090
N4306       N  0.67809339  0.55273091  0.02220578     0.74180
O4307       O  0.71758575  0.46026119  0.92242075    -0.39270
O4308       O  0.70382858  0.43655837  0.97403734    -0.39210
O4309       O  0.68309860  0.57514919  0.00860455    -0.39910
O4310       O  0.66573544  0.55120752  0.04664921    -0.39980
C4311       C  0.68973983  0.48083787  0.46613200    -0.12260
C4312       C  0.68943217  0.50341648  0.43491341     0.04750
C4313       C  0.68858988  0.52871042  0.45760160    -0.07550
C4314       C  0.68824782  0.53070895  0.50995723    -0.08290
C4315       C  0.68852238  0.50810581  0.54098847    -0.02840
C4316       C  0.68944552  0.48285680  0.51844784     0.03970
N4317       N  0.69094764  0.45912576  0.54769128     0.66480
H4318       H  0.69053067  0.46121510  0.44995981     0.15380
H4319       H  0.68753370  0.55028188  0.52642997     0.15090
N4320       N  0.68766455  0.55258626  0.42857045     0.74180
O4321       O  0.68250897  0.43933328  0.53840053    -0.39270
O4322       O  0.70247798  0.45620659  0.57562902    -0.39210
O4323       O  0.67555402  0.55765181  0.40468964    -0.39910
O4324       O  0.69744284  0.57078240  0.43509768    -0.39980
C4325       C  0.68028666  0.64465028  0.31777609    -0.12260
C4326       C  0.69303359  0.65241883  0.34660443     0.04750
C4327       C  0.70585238  0.63538459  0.34862142    -0.07550
C4328       C  0.70573004  0.61161884  0.32131224    -0.08290
C4329       C  0.69291146  0.60389188  0.29325281    -0.02840
C4330       C  0.67999240  0.62060385  0.29125553     0.03970
N4331       N  0.66663837  0.61379277  0.26208509     0.66480
H4332       H  0.67043374  0.65753252  0.31566177     0.15380
H4333       H  0.71553408  0.59860088  0.32348716     0.15090
N4334       N  0.71910629  0.64177460  0.37786247     0.74180
O4335       O  0.65372463  0.62310146  0.27361534    -0.39270
O4336       O  0.66785118  0.60054628  0.22216723    -0.39210
O4337       O  0.71844123  0.64003555  0.42505623    -0.39910
O4338       O  0.73203854  0.64309621  0.35683833    -0.39980
C4339       C  0.63648254  0.49761665  0.35812563    -0.12260
C4340       C  0.64150392  0.50354806  0.30936246     0.04750
C4341       C  0.63097688  0.51290143  0.27325538    -0.07550
C4342       C  0.61546908  0.51492507  0.28679512    -0.08290
C4343       C  0.61037712  0.50740323  0.33473161    -0.02840
C4344       C  0.62102311  0.49948064  0.37150813     0.03970
N4345       N  0.61629513  0.49259640  0.42178991     0.66480
H4346       H  0.64473873  0.49113252  0.38583797     0.15380
H4347       H  0.60710812  0.52024287  0.25852960     0.15090
N4348       N  0.63547350  0.51842950  0.22224075     0.74180
O4349       O  0.62478056  0.47855523  0.44931565    -0.39270
O4350       O  0.60431601  0.50235447  0.44053071    -0.39210
O4351       O  0.64586244  0.50512953  0.20131710    -0.39910
O4352       O  0.62782461  0.53445174  0.19598944    -0.39980
loop_ 
_geom_bond_atom_site_label_1 
_geom_bond_atom_site_label_2 
_geom_bond_distance 
_geom_bond_site_symmetry_2 
_ccdc_geom_bond_type 
O1           Ni7   1.945       .  S
O1           C22   1.275       .  A
O2          Ni25   1.926       .  S
O2           C11   1.270       .  A
O3           Ni7   1.898       .  S
O3          Ni25   1.904       .  S
O3          Ni19   1.908       .  S
O3           H26   0.966       .  S
C4           O21   1.279       .  A
C4           O13   1.277       .  A
C4         C4312   1.489       .  S
O5          Ni24   1.910       .  S
O5           C11   1.266       .  A
O6          Ni24   1.900       .  S
O6            C8   1.266       .  A
Ni7          O10   1.923       .  S
Ni7          O12   1.907       .  S
C8           O18   1.269       .  A
C8         C4340   1.468       .  S
O9          Ni25   1.918       .  S
O9           C15   1.280       .  A
O10          C15   1.279       .  A
C11        C4284   1.476       .  S
O12          C14   1.271       .  A
O13         Ni24   1.909       .  S
C14          O20   1.273       .  A
C14        C4273   1.489       .  S
C15        C4298   1.480       .  S
H16          O17   0.966       .  S
O17         Ni25   1.913       .  S
O17         Ni19   1.894       .  S
O17         Ni24   1.899       .  S
O18         Ni19   1.924       .  S
Ni19         O23   1.900       .  S
Ni19         O21   1.925       .  S
O20         Ni25   1.922       .  S
C22          O23   1.266       .  A
C22        C4329   1.474       .  S
O27         Ni33   1.941       .  S
O27          C48   1.274       .  A
O28         Ni51   1.921       .  S
O28          C37   1.268       .  A
O29         Ni33   1.909       .  S
O29         Ni51   1.907       .  S
O29         Ni45   1.909       .  S
O29          H52   0.966       .  S
C30          O47   1.277       .  A
C30          O39   1.274       .  A
C30        C4301   1.484       .  S
O31         Ni50   1.908       .  S
O31          C37   1.263       .  A
O32         Ni50   1.895       .  S
O32          C34   1.265       .  A
Ni33         O36   1.922       .  S
Ni33         O38   1.913       .  S
C34          O44   1.272       .  A
C34        C4259   1.489       .  S
O35         Ni51   1.915       .  S
O35          C41   1.278       .  A
O36          C41   1.277       .  A
C37        C4231   1.469       .  S
O38          C40   1.271       .  A
O39         Ni50   1.912       .  S
C40          O46   1.271       .  A
C40        C4214   1.483       .  S
C41        C4315   1.484       .  S
H42          O43   0.966       .  S
O43         Ni51   1.920       .  S
O43         Ni45   1.901       .  S
O43         Ni50   1.907       .  S
O44         Ni45   1.929       .  S
Ni45         O49   1.895       .  S
Ni45         O47   1.919       .  S
O46         Ni51   1.924       .  S
C48          O49   1.265       .  A
C48        C4242   1.471       .  S
O53         Ni59   1.933       .  S
O53          C74   1.273       .  A
O54         Ni77   1.931       .  S
O54          C63   1.270       .  A
O55         Ni59   1.907       .  S
O55         Ni77   1.912       .  S
O55         Ni71   1.923       .  S
O55          H78   0.966       .  S
C56          O73   1.280       .  A
C56          O65   1.276       .  A
C56        C4189   1.471       .  S
O57         Ni76   1.901       .  S
O57          C63   1.262       .  A
O58         Ni76   1.890       .  S
O58          C60   1.262       .  A
Ni59         O62   1.922       .  S
Ni59         O64   1.907       .  S
C60          O70   1.268       .  A
C60        C4343   1.464       .  S
O61         Ni77   1.922       .  S
O61          C67   1.278       .  A
O62          C67   1.276       .  A
C63        C4161   1.488       .  S
O64          C66   1.271       .  A
O65         Ni76   1.915       .  S
C66          O72   1.275       .  A
C66        C4144   1.486       .  S
C67        C4172   1.477       .  S
H68          O69   0.966       .  S
O69         Ni77   1.922       .  S
O69         Ni71   1.895       .  S
O69         Ni76   1.905       .  S
O70         Ni71   1.929       .  S
Ni71         O75   1.898       .  S
Ni71         O73   1.924       .  S
O72         Ni77   1.929       .  S
C74          O75   1.265       .  A
C74        C4200   1.473       .  S
O79         Ni85   1.939       .  S
O79         C100   1.273       .  A
O80        Ni103   1.920       .  S
O80          C89   1.269       .  A
O81         Ni85   1.901       .  S
O81        Ni103   1.903       .  S
O81         Ni97   1.906       .  S
O81         H104   0.966       .  S
C82          O99   1.274       .  A
C82          O91   1.273       .  A
C82        C4175   1.476       .  S
O83        Ni102   1.911       .  S
O83          C89   1.264       .  A
O84        Ni102   1.896       .  S
O84          C86   1.268       .  A
Ni85         O88   1.918   1_556  S
Ni85         O90   1.903       .  S
C86          O96   1.270       .  A
C86        C4256   1.481       .  S
O87        Ni103   1.927   1_554  S
O87          C93   1.282       .  A
O88          C93   1.277       .  A
C89        C4116   1.471       .  S
O90          C92   1.271       .  A
O91        Ni102   1.911       .  S
C92          O98   1.270       .  A
C92        C4102   1.493       .  S
C93        C4186   1.471       .  S
H94          O95   0.966       .  S
O95        Ni103   1.924       .  S
O95         Ni97   1.906       .  S
O95        Ni102   1.909       .  S
O96         Ni97   1.930       .  S
Ni97        O101   1.897       .  S
Ni97         O99   1.923       .  S
O98        Ni103   1.925       .  S
C100        O101   1.266       .  A
C100       C4130   1.482       .  S
O105       Ni111   1.946       .  S
O105        C126   1.275       .  A
O106       Ni129   1.920       .  S
O106        C115   1.267       .  A
O107       Ni111   1.910       .  S
O107       Ni129   1.910       .  S
O107       Ni123   1.910       .  S
O107        H130   0.966       .  S
C108        O125   1.276       .  A
C108        O117   1.273       .  A
C108       C4074   1.481       .  S
O109       Ni128   1.905       .  S
O109        C115   1.261       .  A
O110       Ni128   1.900       .  S
O110        C112   1.265       .  A
Ni111       O114   1.934       .  S
Ni111       O116   1.909       .  S
C112        O122   1.272       .  A
C112       C4088   1.475       .  S
O113       Ni129   1.902       .  S
O113        C119   1.271       .  A
O114        C119   1.280       .  A
C115       C4046   1.467       .  S
O116        C118   1.269       .  A
O117       Ni128   1.903       .  S
C118        O124   1.276       .  A
C118       C4032   1.487       .  S
C119       C4060   1.475       .  S
H120        O121   0.966       .  S
O121       Ni129   1.914       .  S
O121       Ni123   1.906       .  S
O121       Ni128   1.917       .  S
O122       Ni123   1.937       .  S
Ni123       O127   1.899       .  S
Ni123       O125   1.919       .  S
O124       Ni129   1.945       .  S
C126        O127   1.267       .  A
C126       C4326   1.491       .  S
O131       Ni137   1.937       .  S
O131        C152   1.273       .  A
O132       Ni155   1.927       .  S
O132        C141   1.270       .  A
O133       Ni137   1.905       .  S
O133       Ni155   1.905       .  S
O133       Ni149   1.906       .  S
O133        H156   0.966       .  S
C134        O151   1.274       .  A
C134        O143   1.275       .  A
C134       C4063   1.474       .  S
O135       Ni154   1.912       .  S
O135        C141   1.264       .  A
O136       Ni154   1.896       .  S
O136        C138   1.265       .  A
Ni137       O140   1.916   1_556  S
Ni137       O142   1.905       .  S
C138        O148   1.270       .  A
C138       C4018   1.464       .  S
O139       Ni155   1.914   1_554  S
O139        C145   1.278       .  A
O140        C145   1.278       .  A
C141       C4004   1.471       .  S
O142        C144   1.270       .  A
O143       Ni154   1.912       .  S
C144        O150   1.273       .  A
C144       C3990   1.483       .  S
C145       C4077   1.483       .  S
H146        O147   0.966       .  S
O147       Ni155   1.913       .  S
O147       Ni149   1.902       .  S
O147       Ni154   1.907       .  S
O148       Ni149   1.928       .  S
Ni149       O153   1.900       .  S
Ni149       O151   1.915       .  S
O150       Ni155   1.924       .  S
C152        O153   1.267       .  A
C152       C4245   1.485       .  S
O157       Ni163   1.929       .  S
O157        C178   1.272       .  A
O158       Ni181   1.932       .  S
O158        C167   1.274       .  A
O159       Ni163   1.892       .  S
O159       Ni181   1.902       .  S
O159       Ni175   1.914       .  S
O159        H182   0.965       .  S
C160        O177   1.281       .  A
C160        O169   1.278       .  A
C160       C3976   1.484       .  S
O161       Ni180   1.910       .  S
O161        C167   1.268       .  A
O162       Ni180   1.902       .  S
O162        C164   1.266       .  A
Ni163       O166   1.913       .  S
Ni163       O168   1.914       .  S
C164        O174   1.272       .  A
C164       C4091   1.482       .  S
O165       Ni181   1.928       .  S
O165        C171   1.282       .  A
O166        C171   1.275       .  A
C167       C3948   1.483       .  S
O168        C170   1.269       .  A
O169       Ni180   1.920       .  S
C170        O176   1.279       .  A
C170       C3934   1.502       .  S
C171       C3962   1.485       .  S
H172        O173   0.966       .  S
O173       Ni181   1.915       .  S
O173       Ni175   1.891       .  S
O173       Ni180   1.894       .  S
O174       Ni175   1.940       .  S
Ni175       O179   1.904       .  S
Ni175       O177   1.920       .  S
O176       Ni181   1.938       .  S
C178        O179   1.269       .  A
C178       C4203   1.482       .  S
O183       Ni189   1.939       .  S
O183        C204   1.274       .  A
O184       Ni207   1.913       .  S
O184        C193   1.266       .  A
O185       Ni189   1.896       .  S
O185       Ni207   1.898       .  S
O185       Ni201   1.906       .  S
O185        H208   0.965       .  S
C186        O203   1.280       .  A
C186        O195   1.273       .  A
C186       C3965   1.486       .  S
O187       Ni206   1.907       .  S
O187        C193   1.264       .  A
O188       Ni206   1.909       .  S
O188        C190   1.268       .  A
Ni189       O192   1.925       .  S
Ni189       O194   1.906       .  S
C190        O200   1.268       .  A
C190       C4021   1.469       .  S
O191       Ni207   1.914       .  S
O191        C197   1.278       .  A
O192        C197   1.279       .  A
C193       C3920   1.461       .  S
O194        C196   1.270       .  A
O195       Ni206   1.908       .  S
C196        O202   1.273       .  A
C196       C3906   1.493       .  S
C197       C3979   1.485       .  S
H198        O199   0.966       .  S
O199       Ni207   1.918       .  S
O199       Ni201   1.898       .  S
O199       Ni206   1.907       .  S
O200       Ni201   1.920       .  S
Ni201       O205   1.897       .  S
Ni201       O203   1.924       .  S
O202       Ni207   1.932       .  S
C204        O205   1.266       .  A
C204       C4133   1.470       .  S
O209       Ni215   1.935       .  S
O209        C230   1.273       .  A
O210       Ni233   1.922       .  S
O210        C219   1.270       .  A
O211       Ni215   1.900       .  S
O211       Ni233   1.904   1_545  S
O211       Ni227   1.914       .  S
O211        H234   0.966       .  S
C212        O229   1.281   1_565  A
C212        O221   1.275       .  A
C212       C3853   1.486   1_565  S
O213       Ni232   1.903       .  S
O213        C219   1.263       .  A
O214       Ni232   1.905       .  S
O214        C216   1.268       .  A
Ni215       O218   1.921       .  S
Ni215       O220   1.905       .  S
C216        O226   1.267   1_565  A
C216       C3895   1.481   1_565  S
O217       Ni233   1.915       .  S
O217        C223   1.278   1_565  A
O218        C223   1.277       .  A
C219       C4049   1.482       .  S
O220        C222   1.270       .  A
O221       Ni232   1.907       .  S
C222        O228   1.273   1_545  A
C222       C3839   1.484       .  S
C223       C3864   1.468       .  S
H224        O225   0.966       .  S
O225       Ni233   1.920       .  S
O225       Ni227   1.892   1_565  S
O225       Ni232   1.901       .  S
O226       Ni227   1.923       .  S
Ni227       O231   1.895       .  S
Ni227       O229   1.931       .  S
O228       Ni233   1.927       .  S
C230        O231   1.266       .  A
C230       C3878   1.463       .  S
O235       Ni241   1.938       .  S
O235        C256   1.274   1_556  A
O236       Ni259   1.935       .  S
O236        C245   1.275       .  A
O237       Ni241   1.896       .  S
O237       Ni259   1.905   1_545  S
O237       Ni253   1.911   1_556  S
O237        H260   0.966       .  S
C238        O255   1.279   1_565  A
C238        O247   1.277       .  A
C238       C3867   1.473   1_565  S
O239       Ni258   1.906   1_556  S
O239        C245   1.264       .  A
O240       Ni258   1.903       .  S
O240        C242   1.267       .  A
Ni241       O244   1.917       .  S
Ni241       O246   1.911       .  S
C242        O252   1.272   1_565  A
C242       C3822   1.481   1_565  S
O243       Ni259   1.926       .  S
O243        C249   1.282   1_565  A
O244        C249   1.278       .  A
C245       C4007   1.490       .  S
O246        C248   1.271       .  A
O247       Ni258   1.913       .  S
C248        O254   1.274   1_545  A
C248       C3794   1.497       .  S
C249       C3850   1.491       .  S
H250        O251   0.966       .  S
O251       Ni259   1.918   1_554  S
O251       Ni253   1.890   1_565  S
O251       Ni258   1.892       .  S
O252       Ni253   1.931       .  S
Ni253       O257   1.900       .  S
Ni253       O255   1.923       .  S
O254       Ni259   1.926       .  S
C256        O257   1.267       .  A
C256       C3811   1.470       .  S
O261       Ni267   1.937       .  S
O261        C282   1.274       .  A
O262       Ni285   1.932       .  S
O262        C271   1.272       .  A
O263       Ni267   1.899       .  S
O263       Ni285   1.905   1_545  S
O263       Ni279   1.911       .  S
O263        H286   0.966       .  S
C264        O281   1.278   1_565  A
C264        O273   1.275       .  A
C264       C3755   1.474   1_564  S
O265       Ni284   1.908       .  S
O265        C271   1.265       .  A
O266       Ni284   1.899       .  S
O266        C268   1.265       .  A
Ni267       O270   1.919       .  S
Ni267       O272   1.909       .  S
C268        O278   1.269   1_565  A
C268       C3825   1.471   1_565  S
O269       Ni285   1.924       .  S
O269        C275   1.281   1_565  A
O270        C275   1.279       .  A
C271       C3951   1.480       .  S
O272        C274   1.270       .  A
O273       Ni284   1.912       .  S
C274        O280   1.273   1_545  A
C274       C3738   1.472       .  S
C275       C3766   1.487       .  S
H276        O277   0.966       .  S
O277       Ni285   1.916       .  S
O277       Ni279   1.898   1_565  S
O277       Ni284   1.902       .  S
O278       Ni279   1.926       .  S
Ni279       O283   1.901       .  S
Ni279       O281   1.919       .  S
O280       Ni285   1.925       .  S
C282        O283   1.266       .  A
C282       C3780   1.474       .  S
O287       Ni293   1.932       .  S
O287        C308   1.274       .  A
O288       Ni311   1.930       .  S
O288        C297   1.270       .  A
O289       Ni293   1.898       .  S
O289       Ni311   1.903   1_545  S
O289       Ni305   1.911       .  S
O289        H312   0.966       .  S
C290        O307   1.281       .  A
C290        O299   1.276   1_545  A
C290       C3769   1.483       .  S
O291       Ni310   1.896       .  S
O291        C297   1.258       .  A
O292       Ni310   1.901       .  S
O292        C294   1.264       .  A
Ni293       O296   1.923       .  S
Ni293       O298   1.910       .  S
C294        O304   1.270   1_565  A
C294       C3892   1.469   1_565  S
O295       Ni311   1.915       .  S
O295        C301   1.281   1_565  A
O296        C301   1.278       .  A
C297       C3923   1.485       .  S
O298        C300   1.269       .  A
O299       Ni310   1.906       .  S
C300        O306   1.271   1_545  A
C300       C3713   1.477       .  S
C301       C3752   1.479       .  S
H302        O303   0.966       .  S
O303       Ni311   1.922       .  S
O303       Ni305   1.892   1_565  S
O303       Ni310   1.896       .  S
O304       Ni305   1.929       .  S
Ni305       O309   1.896       .  S
Ni305       O307   1.932       .  S
O306       Ni311   1.922       .  S
C308        O309   1.267       .  A
C308       C3727   1.475       .  S
O313       Ni319   1.941       .  S
O313        C334   1.275       .  A
O314       Ni337   1.929       .  S
O314        C323   1.272       .  A
O315       Ni319   1.897       .  S
O315       Ni337   1.905       .  S
O315       Ni331   1.916       .  S
O315        H338   0.966       .  S
C316        O333   1.282       .  A
C316        O325   1.277       .  A
C316       C3671   1.479   1_554  S
O317       Ni336   1.909       .  S
O317        C323   1.266       .  A
O318       Ni336   1.899       .  S
O318        C320   1.265       .  A
Ni319       O322   1.922       .  S
Ni319       O324   1.909       .  S
C320        O330   1.268       .  A
C320       C3699   1.470       .  S
O321       Ni337   1.927       .  S
O321        C327   1.281       .  A
O322        C327   1.279       .  A
C323       C4287   1.484       .  S
O324        C326   1.270       .  A
O325       Ni336   1.922       .  S
C326        O332   1.277       .  A
C326       C3657   1.479       .  S
C327       C3685   1.480       .  S
H328        O329   0.966       .  S
O329       Ni337   1.916       .  S
O329       Ni331   1.896       .  S
O329       Ni336   1.900       .  S
O330       Ni331   1.928       .  S
Ni331       O335   1.900       .  S
Ni331       O333   1.923       .  S
O332       Ni337   1.936       .  S
C334        O335   1.268       .  A
C334       C3808   1.494       .  S
O339       Ni345   1.938       .  S
O339        C360   1.274       .  A
O340       Ni363   1.924       .  S
O340        C349   1.272       .  A
O341       Ni345   1.899       .  S
O341       Ni363   1.906       .  S
O341       Ni357   1.909       .  S
O341        H364   0.966       .  S
C342        O359   1.279       .  A
C342        O351   1.276       .  A
C342       C3682   1.482       .  S
O343       Ni362   1.910       .  S
O343        C349   1.266       .  A
O344       Ni362   1.910       .  S
O344        C346   1.267       .  A
Ni345       O348   1.922       .  S
Ni345       O350   1.905       .  S
C346        O356   1.269       .  A
C346       C3640   1.473       .  S
O347       Ni363   1.921       .  S
O347        C353   1.280       .  A
O348        C353   1.276       .  A
C349       C4228   1.481       .  S
O350        C352   1.271       .  A
O351       Ni362   1.917       .  S
C352        O358   1.276       .  A
C352       C3626   1.490       .  S
C353       C3668   1.480       .  S
H354        O355   0.966       .  S
O355       Ni363   1.920       .  S
O355       Ni357   1.895       .  S
O355       Ni362   1.906       .  S
O356       Ni357   1.929       .  S
Ni357       O361   1.888       .  S
Ni357       O359   1.930       .  S
O358       Ni363   1.939       .  S
C360        O361   1.266       .  A
C360       C3881   1.488       .  S
O365       Ni371   1.932       .  S
O365        C386   1.272       .  A
O366       Ni389   1.915       .  S
O366        C375   1.269       .  A
O367       Ni371   1.896       .  S
O367       Ni389   1.897       .  S
O367       Ni383   1.906       .  S
O367        H390   0.966       .  S
C368        O385   1.277       .  A
C368        O377   1.277       .  A
C368       C3601   1.488       .  S
O369       Ni388   1.912       .  S
O369        C375   1.266       .  A
O370       Ni388   1.906       .  S
O370        C372   1.267       .  A
Ni371       O374   1.918       .  S
Ni371       O376   1.908       .  S
C372        O382   1.271       .  A
C372       C3643   1.476       .  S
O373       Ni389   1.914       .  S
O373        C379   1.281       .  A
O374        C379   1.277       .  A
C375       C4158   1.463       .  S
O376        C378   1.270       .  A
O377       Ni388   1.913       .  S
C378        O384   1.272       .  A
C378       C3584   1.486       .  S
C379       C3612   1.482       .  S
H380        O381   0.966       .  S
O381       Ni389   1.915       .  S
O381       Ni383   1.893       .  S
O381       Ni388   1.898       .  S
O382       Ni383   1.927       .  S
Ni383       O387   1.897       .  S
Ni383       O385   1.919       .  S
O384       Ni389   1.926       .  S
C386        O387   1.267       .  A
C386       C3724   1.470       .  S
O391       Ni397   1.941       .  S
O391        C412   1.276   1_556  A
O392       Ni415   1.926       .  S
O392        C401   1.272       .  A
O393       Ni397   1.895       .  S
O393       Ni415   1.903       .  S
O393       Ni409   1.911   1_556  S
O393        H416   0.966       .  S
C394        O411   1.282       .  A
C394        O403   1.274       .  A
C394       C3615   1.480       .  S
O395       Ni414   1.904   1_556  S
O395        C401   1.265       .  A
O396       Ni414   1.908       .  S
O396        C398   1.268       .  A
Ni397       O400   1.925       .  S
Ni397       O402   1.907       .  S
C398        O408   1.269       .  A
C398       C3696   1.476       .  S
O399       Ni415   1.913       .  S
O399        C405   1.277       .  A
O400        C405   1.280       .  A
C401       C4119   1.482       .  S
O402        C404   1.270       .  A
O403       Ni414   1.905       .  S
C404        O410   1.275       .  A
C404       C3570   1.478       .  S
C405       C3598   1.491       .  S
H406        O407   0.966       .  S
O407       Ni415   1.915   1_554  S
O407       Ni409   1.890       .  S
O407       Ni414   1.896       .  S
O408       Ni409   1.926       .  S
Ni409       O413   1.898       .  S
Ni409       O411   1.927       .  S
O410       Ni415   1.933       .  S
C412        O413   1.269       .  A
C412       C3783   1.486       .  S
O417       Ni423   1.913       .  S
O417        C438   1.265       .  A
O418       Ni441   1.897       .  S
O418        C427   1.266       .  A
O419       Ni423   1.910       .  S
O419       Ni441   1.903       .  S
O419       Ni435   1.922       .  S
O419        H442   0.966       .  S
C420        O437   1.280       .  A
C420        O429   1.275       .  A
C420       C3528   1.474       .  S
O421       Ni440   1.932       .  S
O421        C427   1.273       .  A
O422       Ni440   1.917       .  S
O422        C424   1.271       .  A
Ni423       O426   1.913       .  S
Ni423       O428   1.901       .  S
C424        O434   1.271       .  A
C424       C3486   1.487       .  S
O425       Ni441   1.924       .  S
O425        C431   1.278       .  A
O426        C431   1.274       .  A
C427       C3542   1.480       .  S
O428        C430   1.267       .  A
O429       Ni440   1.922       .  S
C430        O436   1.274       .  A
C430       C3556   1.483       .  S
C431       C3517   1.489       .  S
H432        O433   0.966       .  S
O433       Ni441   1.915       .  S
O433       Ni435   1.906       .  S
O433       Ni440   1.911       .  S
O434       Ni435   1.925       .  S
Ni435       O439   1.915       .  S
Ni435       O437   1.923       .  S
O436       Ni441   1.941       .  S
C438        O439   1.267       .  A
C438       C3503   1.466       .  S
O443       Ni449   1.905       .  S
O443        C464   1.262       .  A
O444       Ni467   1.895       .  S
O444        C453   1.264       .  A
O445       Ni449   1.909       .  S
O445       Ni467   1.903       .  S
O445       Ni461   1.923       .  S
O445        H468   0.966       .  S
C446        O463   1.281       .  A
C446        O455   1.278       .  A
C446       C3514   1.489       .  S
O447       Ni466   1.940       .  S
O447        C453   1.273       .  A
O448       Ni466   1.902       .  S
O448        C450   1.269       .  A
Ni449       O452   1.914       .  S
Ni449       O454   1.891       .  S
C450        O460   1.274       .  A
C450       C3430   1.477       .  S
O451       Ni467   1.925       .  S
O451        C457   1.279   1_556  A
O452        C457   1.274   1_556  A
C453       C3458   1.471       .  S
O454        C456   1.264       .  A
O455       Ni466   1.924       .  S
C456        O462   1.265       .  A
C456       C3472   1.462       .  S
C457       C3531   1.470       .  S
H458        O459   0.966       .  S
O459       Ni467   1.915       .  S
O459       Ni461   1.908       .  S
O459       Ni466   1.904       .  S
O460       Ni461   1.931       .  S
Ni461       O465   1.936       .  S
Ni461       O463   1.922       .  S
O462       Ni467   1.920       .  S
C464        O465   1.271       .  A
C464       C3444   1.491       .  S
O469       Ni475   1.907   1_554  S
O469        C490   1.265       .  A
O470       Ni493   1.901       .  S
O470        C479   1.268       .  A
O471       Ni475   1.895       .  S
O471       Ni493   1.894       .  S
O471       Ni487   1.920   1_556  S
O471        H494   0.966       .  S
C472        O489   1.283       .  A
C472        O481   1.277       .  A
C472       C3402   1.478       .  S
O473       Ni492   1.934       .  S
O473        C479   1.274   1_554  A
O474       Ni492   1.917       .  S
O474        C476   1.272       .  A
Ni475       O478   1.918       .  S
Ni475       O480   1.889       .  S
C476        O486   1.271       .  A
C476       C4270   1.492       .  S
O477       Ni493   1.931       .  S
O477        C483   1.280       .  A
O478        C483   1.276       .  A
C479       C3419   1.472       .  S
O480        C482   1.266       .  A
O481       Ni492   1.922       .  S
C482        O488   1.272       .  A
C482       C3475   1.478       .  S
C483       C3391   1.470       .  S
H484        O485   0.966       .  S
O485       Ni493   1.915   1_554  S
O485       Ni487   1.903       .  S
O485       Ni492   1.901       .  S
O486       Ni487   1.916       .  S
Ni487       O491   1.927       .  S
Ni487       O489   1.931       .  S
O488       Ni493   1.934       .  S
C490        O491   1.271       .  A
C490       C3377   1.477       .  S
O495       Ni501   1.909       .  S
O495        C516   1.265       .  A
O496       Ni519   1.898       .  S
O496        C505   1.267       .  A
O497       Ni501   1.902       .  S
O497       Ni519   1.901       .  S
O497       Ni513   1.914       .  S
O497        H520   0.966       .  S
C498        O515   1.276       .  A
C498        O507   1.278       .  A
C498       C3388   1.470       .  S
O499       Ni518   1.939       .  S
O499        C505   1.275       .  A
O500       Ni518   1.908       .  S
O500        C502   1.267       .  A
Ni501       O504   1.906       .  S
Ni501       O506   1.903       .  S
C502        O512   1.274       .  A
C502       C4217   1.488       .  S
O503       Ni519   1.929       .  S
O503        C509   1.278       .  A
O504        C509   1.274       .  A
C505       C3360   1.477       .  S
O506        C508   1.268       .  A
O507       Ni518   1.934       .  S
C508        O514   1.275       .  A
C508       C3559   1.493       .  S
C509       C3405   1.476       .  S
H510        O511   0.966       .  S
O511       Ni519   1.914       .  S
O511       Ni513   1.905       .  S
O511       Ni518   1.909       .  S
O512       Ni513   1.931       .  S
Ni513       O517   1.915       .  S
Ni513       O515   1.914       .  S
O514       Ni519   1.938       .  S
C516        O517   1.267       .  A
C516       C3346   1.463       .  S
O521       Ni527   1.903   1_554  S
O521        C542   1.264       .  A
O522       Ni545   1.894       .  S
O522        C531   1.264       .  A
O523       Ni527   1.906   1_554  S
O523       Ni545   1.894   1_554  S
O523       Ni539   1.925       .  S
O523        H546   0.966   1_554  S
C524        O541   1.280       .  A
C524        O533   1.279       .  A
C524       C3318   1.482       .  S
O525       Ni544   1.940       .  S
O525        C531   1.274   1_554  A
O526       Ni544   1.908       .  S
O526        C528   1.269       .  A
Ni527       O530   1.912       .  S
Ni527       O532   1.899       .  S
C528        O538   1.271       .  A
C528       C3279   1.471       .  S
O529       Ni545   1.932       .  S
O529        C535   1.280       .  A
O530        C535   1.275       .  A
C531       C3461   1.477       .  S
O532        C534   1.267       .  A
O533       Ni544   1.930       .  S
C534        O540   1.270       .  A
C534       C3332   1.483       .  S
C535       C3304   1.472       .  S
H536        O537   0.966       .  S
O537       Ni545   1.915   1_554  S
O537       Ni539   1.907       .  S
O537       Ni544   1.905       .  S
O538       Ni539   1.925       .  S
Ni539       O543   1.924       .  S
Ni539       O541   1.923       .  S
O540       Ni545   1.932       .  S
C542        O543   1.269       .  A
C542       C3290   1.473       .  S
O547       Ni553   1.908       .  S
O547        C568   1.265       .  A
O548       Ni571   1.894       .  S
O548        C557   1.267       .  A
O549       Ni553   1.897       .  S
O549       Ni571   1.896       .  S
O549       Ni565   1.923       .  S
O549        H572   0.966       .  S
C550        O567   1.281       .  A
C550        O559   1.279       .  A
C550       C3307   1.477       .  S
O551       Ni570   1.938       .  S
O551        C557   1.275       .  A
O552       Ni570   1.909       .  S
O552        C554   1.268       .  A
Ni553       O556   1.913       .  S
Ni553       O558   1.900       .  S
C554        O564   1.273       .  A
C554       C3234   1.484       .  S
O555       Ni571   1.932       .  S
O555        C561   1.278       .  A
O556        C561   1.274       .  A
C557       C3545   1.469       .  S
O558        C560   1.266       .  A
O559       Ni570   1.931       .  S
C560        O566   1.276       .  A
C560       C3262   1.498       .  S
C561       C3321   1.472       .  S
H562        O563   0.966       .  S
O563       Ni571   1.910       .  S
O563       Ni565   1.904       .  S
O563       Ni570   1.901       .  S
O564       Ni565   1.934       .  S
Ni565       O569   1.923       .  S
Ni565       O567   1.922       .  S
O566       Ni571   1.942       .  S
C568        O569   1.270       .  A
C568       C3248   1.476       .  S
O573       Ni579   1.909       .  S
O573        C594   1.265       .  A
O574       Ni597   1.898       .  S
O574        C583   1.267       .  A
O575       Ni579   1.902       .  S
O575       Ni597   1.900       .  S
O575       Ni591   1.918       .  S
O575        H598   0.966       .  S
C576        O593   1.279       .  A
C576        O585   1.279       .  A
C576       C3220   1.478       .  S
O577       Ni596   1.937       .  S
O577        C583   1.273       .  A
O578       Ni596   1.908       .  S
O578        C580   1.269       .  A
Ni579       O582   1.914       .  S
Ni579       O584   1.897       .  S
C580        O590   1.276       .  A
C580       C3654   1.480       .  S
O581       Ni597   1.924       .  S
O581        C587   1.279       .  A
O582        C587   1.275       .  A
C583       C3363   1.474       .  S
O584        C586   1.267       .  A
O585       Ni596   1.920       .  S
C586        O592   1.270       .  A
C586       C3265   1.488       .  S
C587       C3206   1.477       .  S
H588        O589   0.966       .  S
O589       Ni597   1.912       .  S
O589       Ni591   1.901       .  S
O589       Ni596   1.900       .  S
O590       Ni591   1.937       .  S
Ni591       O595   1.925       .  S
Ni591       O593   1.922       .  S
O592       Ni597   1.936       .  S
C594        O595   1.271       .  A
C594       C3192   1.473       .  S
O599       Ni605   1.909       .  S
O599        C620   1.264       .  A
O600       Ni623   1.899       .  S
O600        C609   1.266       .  A
O601       Ni605   1.910       .  S
O601       Ni623   1.903       .  S
O601       Ni617   1.918       .  S
O601        H624   0.966       .  S
C602        O619   1.280       .  A
C602        O611   1.275       .  A
C602       C3209   1.478       .  S
O603       Ni622   1.936       .  S
O603        C609   1.273       .  A
O604       Ni622   1.902       .  S
O604        C606   1.270       .  A
Ni605       O608   1.916       .  S
Ni605       O610   1.900       .  S
C606        O616   1.276       .  A
C606       C3629   1.486       .  S
O607       Ni623   1.919       .  S
O607        C613   1.277   1_556  A
O608        C613   1.276   1_556  A
C609       C3416   1.486       .  S
O610        C612   1.265       .  A
O611       Ni622   1.917       .  S
C612        O618   1.269       .  A
C612       C3335   1.471       .  S
C613       C3223   1.481       .  S
H614        O615   0.966       .  S
O615       Ni623   1.913       .  S
O615       Ni617   1.913       .  S
O615       Ni622   1.905       .  S
O616       Ni617   1.936       .  S
Ni617       O621   1.934       .  S
Ni617       O619   1.922       .  S
O618       Ni623   1.929       .  S
C620        O621   1.272       .  A
C620       C3178   1.482       .  S
O625       Ni631   1.909       .  S
O625        C646   1.265       .  A
O626       Ni649   1.896       .  S
O626        C635   1.266       .  A
O627       Ni631   1.897       .  S
O627       Ni649   1.893       .  S
O627       Ni643   1.923       .  S
O627        H650   0.966       .  S
C628        O645   1.282       .  A
C628        O637   1.277       .  A
C628       C3122   1.476       .  S
O629       Ni648   1.934       .  S
O629        C635   1.272       .  A
O630       Ni648   1.906       .  S
O630        C632   1.269       .  A
Ni631       O634   1.930       .  S
Ni631       O636   1.885       .  S
C632        O642   1.273       .  A
C632       C3111   1.486       .  S
O633       Ni649   1.923       .  S
O633        C639   1.277       .  A
O634        C639   1.279       .  A
C635       C3150   1.466       .  S
O636        C638   1.264       .  A
O637       Ni648   1.923       .  S
C638        O644   1.275       .  A
C638       C3164   1.490       .  S
C639       C3139   1.485       .  S
H640        O641   0.966       .  S
O641       Ni649   1.918       .  S
O641       Ni643   1.908       .  S
O641       Ni648   1.907       .  S
O642       Ni643   1.924       .  S
Ni643       O647   1.927       .  S
Ni643       O645   1.935       .  S
O644       Ni649   1.949       .  S
C646        O647   1.271       .  A
C646       C3500   1.487       .  S
O651       Ni657   1.909       .  S
O651        C672   1.264       .  A
O652       Ni675   1.892       .  S
O652        C661   1.267       .  A
O653       Ni657   1.906       .  S
O653       Ni675   1.906       .  S
O653       Ni669   1.932       .  S
O653        H676   0.966       .  S
C654        O671   1.286       .  A
C654        O663   1.278       .  A
C654       C3136   1.488       .  S
O655       Ni674   1.948       .  S
O655        C661   1.279       .  A
O656       Ni674   1.921       .  S
O656        C658   1.272       .  A
Ni657       O660   1.917       .  S
Ni657       O662   1.893       .  S
C658        O668   1.271       .  A
C658       C3066   1.483       .  S
O659       Ni675   1.929       .  S
O659        C665   1.277       .  A
O660        C665   1.274       .  A
C661       C3080   1.476       .  S
O662        C664   1.268       .  A
O663       Ni674   1.925       .  S
C664        O670   1.272       .  A
C664       C3094   1.487       .  S
C665       C3125   1.473       .  S
H666        O667   0.966       .  S
O667       Ni675   1.902       .  S
O667       Ni669   1.896       .  S
O667       Ni674   1.899       .  S
O668       Ni669   1.929       .  S
Ni669       O673   1.927       .  S
Ni669       O671   1.927       .  S
O670       Ni675   1.937       .  S
C672        O673   1.270       .  A
C672       C3447   1.474       .  S
O677       Ni683   1.905       .  S
O677        C698   1.263       .  A
O678       Ni701   1.895       .  S
O678        C687   1.266       .  A
O679       Ni683   1.907       .  S
O679       Ni701   1.896       .  S
O679       Ni695   1.908       .  S
O679        H702   0.965       .  S
C680        O697   1.271   1_556  A
C680        O689   1.273       .  A
C680       C3027   1.471       .  S
O681       Ni700   1.930       .  S
O681        C687   1.271       .  A
O682       Ni700   1.898       .  S
O682        C684   1.269       .  A
Ni683       O686   1.905       .  S
Ni683       O688   1.895       .  S
C684        O694   1.279       .  A
C684       C3993   1.481       .  S
O685       Ni701   1.925       .  S
O685        C691   1.279       .  A
O686        C691   1.274       .  A
C687       C3052   1.486       .  S
O688        C690   1.265       .  A
O689       Ni700   1.928   1_556  S
C690        O696   1.268       .  A
C690       C3167   1.471       .  S
C691       C3041   1.488       .  S
H692        O693   0.966       .  S
O693       Ni701   1.928       .  S
O693       Ni695   1.920       .  S
O693       Ni700   1.918       .  S
O694       Ni695   1.945       .  S
Ni695       O699   1.927       .  S
Ni695       O697   1.912       .  S
O696       Ni701   1.928       .  S
C698        O699   1.269       .  A
C698       C3374   1.478       .  S
O703       Ni709   1.900       .  S
O703        C724   1.260       .  A
O704       Ni727   1.895       .  S
O704        C713   1.267       .  A
O705       Ni709   1.898       .  S
O705       Ni727   1.899       .  S
O705       Ni721   1.923       .  S
O705        H728   0.966       .  S
C706        O723   1.279       .  A
C706        O715   1.279       .  A
C706       C3038   1.483       .  S
O707       Ni726   1.939       .  S
O707        C713   1.277       .  A
O708       Ni726   1.913       .  S
O708        C710   1.270       .  A
Ni709       O712   1.912       .  S
Ni709       O714   1.890       .  S
C710        O720   1.273       .  A
C710       C4035   1.485       .  S
O711       Ni727   1.929       .  S
O711        C717   1.277       .  A
O712        C717   1.275       .  A
C713       C3010   1.491       .  S
O714        C716   1.263       .  A
O715       Ni726   1.926       .  S
C716        O722   1.275       .  A
C716       C3097   1.498       .  S
C717       C3024   1.467       .  S
H718        O719   0.966       .  S
O719       Ni727   1.910       .  S
O719       Ni721   1.909       .  S
O719       Ni726   1.900       .  S
O720       Ni721   1.938       .  S
Ni721       O725   1.929       .  S
Ni721       O723   1.913       .  S
O722       Ni727   1.943       .  S
C724        O725   1.271       .  A
C724       C3349   1.488       .  S
O729       Ni735   1.904       .  S
O729        C750   1.263       .  A
O730       Ni753   1.898       .  S
O730        C739   1.271       .  A
O731       Ni735   1.887       .  S
O731       Ni753   1.892   1_545  S
O731       Ni747   1.925       .  S
O731        H754   0.966       .  S
C732        O749   1.284   1_565  A
C732        O741   1.278       .  A
C732       C2968   1.479       .  S
O733       Ni752   1.943       .  S
O733        C739   1.278       .  A
O734       Ni752   1.917       .  S
O734        C736   1.273       .  A
Ni735       O738   1.911       .  S
Ni735       O740   1.888       .  S
C736        O746   1.269   1_565  A
C736       C2954   1.490   1_565  S
O737       Ni753   1.939       .  S
O737        C743   1.282   1_565  A
O738        C743   1.276       .  A
C739       C3153   1.488       .  S
O740        C742   1.263       .  A
O741       Ni752   1.931   1_556  S
C742        O748   1.277   1_545  A
C742       C2999   1.496       .  S
C743       C2985   1.490       .  S
H744        O745   0.966       .  S
O745       Ni753   1.913       .  S
O745       Ni747   1.903   1_565  S
O745       Ni752   1.900       .  S
O746       Ni747   1.924       .  S
Ni747       O751   1.928       .  S
Ni747       O749   1.930   1_554  S
O748       Ni753   1.948       .  S
C750        O751   1.271       .  A
C750       C3293   1.475       .  S
O755       Ni761   1.914       .  S
O755        C776   1.265       .  A
O756       Ni779   1.891       .  S
O756        C765   1.263       .  A
O757       Ni761   1.916       .  S
O757       Ni779   1.908   1_545  S
O757       Ni773   1.916       .  S
O757        H780   0.966       .  S
C758        O775   1.277   1_565  A
C758        O767   1.281       .  A
C758       C2982   1.487   1_565  S
O759       Ni778   1.949       .  S
O759        C765   1.276       .  A
O760       Ni778   1.913       .  S
O760        C762   1.270       .  A
Ni761       O764   1.921       .  S
Ni761       O766   1.895       .  S
C762        O772   1.277   1_565  A
C762       C2929   1.482       .  S
O763       Ni779   1.922       .  S
O763        C769   1.276   1_565  A
O764        C769   1.273       .  A
C765       C3083   1.480       .  S
O766        C768   1.265       .  A
O767       Ni778   1.935       .  S
C768        O774   1.268   1_545  A
C768       C2940   1.471   1_545  S
C769       C2971   1.474   1_545  S
H770        O771   0.966       .  S
O771       Ni779   1.913       .  S
O771       Ni773   1.907   1_565  S
O771       Ni778   1.908       .  S
O772       Ni773   1.940       .  S
Ni773       O777   1.918       .  S
Ni773       O775   1.917       .  S
O774       Ni779   1.930       .  S
C776        O777   1.269       .  A
C776       C3251   1.471       .  S
O781       Ni787   1.905       .  S
O781        C802   1.265       .  A
O782       Ni805   1.890       .  S
O782        C791   1.265       .  A
O783       Ni787   1.895       .  S
O783       Ni805   1.892   1_545  S
O783       Ni799   1.924       .  S
O783        H806   0.966       .  S
C784        O801   1.282   1_565  A
C784        O793   1.278       .  A
C784       C2898   1.476       .  S
O785       Ni804   1.940       .  S
O785        C791   1.275       .  A
O786       Ni804   1.914       .  S
O786        C788   1.271       .  A
Ni787       O790   1.910       .  S
Ni787       O792   1.901       .  S
C788        O798   1.272   1_565  A
C788       C3836   1.490       .  S
O789       Ni805   1.935       .  S
O789        C795   1.279   1_565  A
O790        C795   1.274       .  A
C791       C3055   1.463       .  S
O792        C794   1.268       .  A
O793       Ni804   1.932       .  S
C794        O800   1.272   1_545  A
C794       C2996   1.485       .  S
C795       C2912   1.469       .  S
H796        O797   0.966       .  S
O797       Ni805   1.913       .  S
O797       Ni799   1.906   1_565  S
O797       Ni804   1.902       .  S
O798       Ni799   1.925       .  S
Ni799       O803   1.928       .  S
Ni799       O801   1.928       .  S
O800       Ni805   1.934       .  S
C802        O803   1.272       .  A
C802       C3195   1.482       .  S
O807       Ni813   1.909       .  S
O807        C828   1.265       .  A
O808       Ni831   1.894       .  S
O808        C817   1.265       .  A
O809       Ni813   1.901       .  S
O809       Ni831   1.897   1_545  S
O809       Ni825   1.922       .  S
O809        H832   0.966       .  S
C810        O827   1.280   1_565  A
C810        O819   1.276       .  A
C810       C2915   1.470       .  S
O811       Ni830   1.941       .  S
O811        C817   1.275       .  A
O812       Ni830   1.909       .  S
O812        C814   1.270       .  A
Ni813       O816   1.915       .  S
Ni813       O818   1.896       .  S
C814        O824   1.274   1_565  A
C814       C3797   1.498       .  S
O815       Ni831   1.928       .  S
O815        C821   1.278   1_565  A
O816        C821   1.275       .  A
C817       C3013   1.468       .  S
O818        C820   1.267       .  A
O819       Ni830   1.922       .  S
C820        O826   1.271   1_545  A
C820       C2943   1.482       .  S
C821       C2901   1.471   1_545  S
H822        O823   0.966       .  S
O823       Ni831   1.912       .  S
O823       Ni825   1.909   1_565  S
O823       Ni830   1.907       .  S
O824       Ni825   1.927       .  S
Ni825       O829   1.934       .  S
Ni825       O827   1.925       .  S
O826       Ni831   1.929       .  S
C828        O829   1.272       .  A
C828       C3181   1.480       .  S
O833       Ni839   1.938       .  S
O833        C854   1.272       .  A
O834       Ni857   1.924       .  S
O834        C843   1.268       .  A
O835       Ni839   1.904       .  S
O835       Ni857   1.906   1_545  S
O835       Ni851   1.908       .  S
O835        H858   0.966       .  S
C836        O853   1.278   1_565  A
C836        O845   1.277       .  A
C836       C2856   1.488   1_565  S
O837       Ni856   1.909       .  S
O837        C843   1.263       .  A
O838       Ni856   1.900       .  S
O838        C840   1.265       .  A
Ni839       O842   1.921       .  S
Ni839       O844   1.909       .  S
C840        O850   1.271   1_565  A
C840       C2887   1.471   1_565  S
O841       Ni857   1.915       .  S
O841        C847   1.278   1_565  A
O842        C847   1.278       .  A
C843       C2828   1.470       .  S
O844        C846   1.271       .  A
O845       Ni856   1.911       .  S
C846        O852   1.272   1_545  A
C846       C2814   1.487       .  S
C847       C2845   1.476       .  S
H848        O849   0.966       .  S
O849       Ni857   1.918       .  S
O849       Ni851   1.899   1_565  S
O849       Ni856   1.907       .  S
O850       Ni851   1.932       .  S
Ni851       O855   1.903       .  S
Ni851       O853   1.921       .  S
O852       Ni857   1.929       .  S
C854        O855   1.268       .  A
C854       C2870   1.493       .  S
O859       Ni865   1.941       .  S
O859        C880   1.274       .  A
O860       Ni883   1.926       .  S
O860        C869   1.270       .  A
O861       Ni865   1.907       .  S
O861       Ni883   1.911   1_545  S
O861       Ni877   1.910       .  S
O861        H884   0.966       .  S
C862        O879   1.275   1_565  A
C862        O871   1.275       .  A
C862       C2842   1.471   1_565  S
O863       Ni882   1.915       .  S
O863        C869   1.265       .  A
O864       Ni882   1.902       .  S
O864        C866   1.265       .  A
Ni865       O868   1.925       .  S
Ni865       O870   1.906       .  S
C866        O876   1.269   1_565  A
C866       C2803   1.468   1_565  S
O867       Ni883   1.913       .  S
O867        C873   1.276   1_565  A
O868        C873   1.278       .  A
C869       C2772   1.475       .  S
O870        C872   1.270       .  A
O871       Ni882   1.912       .  S
C872        O878   1.276   1_545  A
C872       C2758   1.488       .  S
C873       C2859   1.484       .  S
H874        O875   0.966       .  S
O875       Ni883   1.914       .  S
O875       Ni877   1.900   1_565  S
O875       Ni882   1.912       .  S
O876       Ni877   1.925       .  S
Ni877       O881   1.897       .  S
Ni877       O879   1.918       .  S
O878       Ni883   1.937       .  S
C880        O881   1.265       .  A
C880       C2786   1.475       .  S
O885       Ni891   1.939       .  S
O885        C906   1.273       .  A
O886       Ni909   1.935       .  S
O886        C895   1.273       .  A
O887       Ni891   1.893       .  S
O887       Ni909   1.907   1_545  S
O887       Ni903   1.907       .  S
O887        H910   0.966       .  S
C888        O905   1.279   1_565  A
C888        O897   1.276       .  A
C888       C2730   1.488   1_565  S
O889       Ni908   1.906       .  S
O889        C895   1.266       .  A
O890       Ni908   1.913       .  S
O890        C892   1.268       .  A
Ni891       O894   1.919       .  S
Ni891       O896   1.907       .  S
C892        O902   1.269   1_565  A
C892       C2884   1.471   1_565  S
O893       Ni909   1.917       .  S
O893        C899   1.283   1_565  A
O894        C899   1.276       .  A
C895       C2702   1.487       .  S
O896        C898   1.270       .  A
O897       Ni908   1.909       .  S
C898        O904   1.272   1_545  A
C898       C2926   1.476       .  S
C899       C2716   1.488       .  S
H900        O901   0.966       .  S
O901       Ni909   1.924       .  S
O901       Ni903   1.895   1_565  S
O901       Ni908   1.900       .  S
O902       Ni903   1.926       .  S
Ni903       O907   1.903       .  S
Ni903       O905   1.928       .  S
O904       Ni909   1.930       .  S
C906        O907   1.268       .  A
C906       C2744   1.485       .  S
O911       Ni917   1.942       .  S
O911        C932   1.278       .  A
O912       Ni935   1.926       .  S
O912        C921   1.271       .  A
O913       Ni917   1.891       .  S
O913       Ni935   1.899   1_545  S
O913       Ni929   1.910       .  S
O913        H936   0.966       .  S
C914        O931   1.284   1_565  A
C914        O923   1.272       .  A
C914       C2719   1.483       .  S
O915       Ni934   1.897       .  S
O915        C921   1.264       .  A
O916       Ni934   1.918       .  S
O916        C918   1.268       .  A
Ni917       O920   1.927   1_556  S
Ni917       O922   1.907       .  S
C918        O928   1.269   1_565  A
C918       C2800   1.480       .  S
O919       Ni935   1.914   1_554  S
O919        C925   1.279   1_565  A
O920        C925   1.281       .  A
C921       C2677   1.473       .  S
O922        C924   1.270       .  A
O923       Ni934   1.901       .  S
C924        O930   1.275   1_545  A
C924       C2957   1.485       .  S
C925       C2733   1.492       .  S
H926        O927   0.966       .  S
O927       Ni935   1.917       .  S
O927       Ni929   1.882   1_565  S
O927       Ni934   1.894       .  S
O928       Ni929   1.926       .  S
Ni929       O933   1.893       .  S
Ni929       O931   1.936       .  S
O930       Ni935   1.934       .  S
C932        O933   1.265       .  A
C932       C2688   1.489       .  S
O937       Ni943   1.939       .  S
O937        C958   1.273       .  A
O938       Ni961   1.926       .  S
O938        C947   1.270       .  A
O939       Ni943   1.902       .  S
O939       Ni961   1.909       .  S
O939       Ni955   1.910       .  S
O939        H962   0.966       .  S
C940        O957   1.282       .  A
C940        O949   1.273       .  A
C940       C2649   1.487       .  S
O941       Ni960   1.906       .  S
O941        C947   1.262       .  A
O942       Ni960   1.907       .  S
O942        C944   1.266       .  A
Ni943       O946   1.928       .  S
Ni943       O948   1.904       .  S
C944        O954   1.267       .  A
C944       C2660   1.467       .  S
O945       Ni961   1.906       .  S
O945        C951   1.275       .  A
O946        C951   1.279       .  A
C947       C2621   1.490       .  S
O948        C950   1.268       .  A
O949       Ni960   1.904       .  S
C950        O956   1.272       .  A
C950       C3276   1.471       .  S
C951       C2632   1.478       .  S
H952        O953   0.966       .  S
O953       Ni961   1.915       .  S
O953       Ni955   1.897       .  S
O953       Ni960   1.907       .  S
O954       Ni955   1.922       .  S
Ni955       O959   1.904       .  S
Ni955       O957   1.927       .  S
O956       Ni961   1.930       .  S
C958        O959   1.267       .  A
C958       C2747   1.474       .  S
O963       Ni969   1.933       .  S
O963        C984   1.272       .  A
O964       Ni987   1.926       .  S
O964        C973   1.271       .  A
O965       Ni969   1.902       .  S
O965       Ni987   1.905       .  S
O965       Ni981   1.905       .  S
O965        H988   0.966       .  S
C966        O983   1.275       .  A
C966        O975   1.276       .  A
C966       C2635   1.490       .  S
O967       Ni986   1.915       .  S
O967        C973   1.266       .  A
O968       Ni986   1.911       .  S
O968        C970   1.268       .  A
Ni969       O972   1.920       .  S
Ni969       O974   1.905       .  S
C970        O980   1.271       .  A
C970       C2604   1.473       .  S
O971       Ni987   1.914       .  S
O971        C977   1.280       .  A
O972        C977   1.276       .  A
C973       C2593   1.475       .  S
O974        C976   1.269       .  A
O975       Ni986   1.912       .  S
C976        O982   1.275       .  A
C976       C3237   1.481       .  S
C977       C2646   1.481       .  S
H978        O979   0.966       .  S
O979       Ni987   1.916       .  S
O979       Ni981   1.900       .  S
O979       Ni986   1.907       .  S
O980       Ni981   1.930       .  S
Ni981       O985   1.897       .  S
Ni981       O983   1.923       .  S
O982       Ni987   1.935       .  S
C984        O985   1.266       .  A
C984       C2691   1.465       .  S
O989       Ni995   1.939       .  S
O989       C1010   1.275       .  A
O990      Ni1013   1.925       .  S
O990        C999   1.271       .  A
O991       Ni995   1.895       .  S
O991      Ni1013   1.903       .  S
O991      Ni1007   1.912       .  S
O991       H1014   0.966       .  S
C992       O1009   1.284       .  A
C992       O1001   1.273       .  A
C992       C2579   1.481       .  S
O993      Ni1012   1.904       .  S
O993        C999   1.265       .  A
O994      Ni1012   1.915       .  S
O994        C996   1.268       .  A
Ni995       O998   1.926       .  S
Ni995      O1000   1.904       .  S
C996       O1006   1.268       .  A
C996       C2663   1.473       .  S
O997      Ni1013   1.905       .  S
O997       C1003   1.275       .  A
O998       C1003   1.279       .  A
C999       C2548   1.483       .  S
O1000      C1002   1.271       .  A
O1001     Ni1012   1.903       .  S
C1002      O1008   1.276       .  A
C1002      C2534   1.490       .  S
C1003      C2562   1.481       .  S
H1004      O1005   0.966       .  S
O1005     Ni1013   1.915       .  S
O1005     Ni1007   1.891       .  S
O1005     Ni1012   1.898       .  S
O1006     Ni1007   1.924       .  S
Ni1007     O1011   1.902       .  S
Ni1007     O1009   1.935       .  S
O1008     Ni1013   1.936       .  S
C1010      O1011   1.268       .  A
C1010      C2873   1.469       .  S
O1015     Ni1021   1.939       .  S
O1015      C1036   1.275       .  A
O1016     Ni1039   1.929       .  S
O1016      C1025   1.273       .  A
O1017     Ni1021   1.898       .  S
O1017     Ni1039   1.903       .  S
O1017     Ni1033   1.908       .  S
O1017      H1040   0.966       .  S
C1018      O1035   1.276       .  A
C1018      O1027   1.278       .  A
C1018      C2565   1.486       .  S
O1019     Ni1038   1.910       .  S
O1019      C1025   1.267       .  A
O1020     Ni1038   1.904       .  S
O1020      C1022   1.266       .  A
Ni1021     O1024   1.917   1_556  S
Ni1021     O1026   1.910       .  S
C1022      O1032   1.271       .  A
C1022      C2607   1.471       .  S
O1023     Ni1039   1.921   1_554  S
O1023      C1029   1.282       .  A
O1024      C1029   1.277       .  A
C1025      C2520   1.481       .  S
O1026      C1028   1.271       .  A
O1027     Ni1038   1.912       .  S
C1028      O1034   1.274       .  A
C1028      C2506   1.493       .  S
C1029      C2576   1.485       .  S
H1030      O1031   0.966       .  S
O1031     Ni1039   1.914       .  S
O1031     Ni1033   1.891       .  S
O1031     Ni1038   1.895       .  S
O1032     Ni1033   1.928       .  S
Ni1033     O1037   1.899       .  S
Ni1033     O1035   1.916       .  S
O1034     Ni1039   1.921       .  S
C1036      O1037   1.267       .  A
C1036      C2789   1.484       .  S
O1041     Ni1047   1.936       .  S
O1041      C1062   1.273       .  A
O1042     Ni1065   1.935       .  S
O1042      C1051   1.273       .  A
O1043     Ni1047   1.900       .  S
O1043     Ni1065   1.905       .  S
O1043     Ni1059   1.914       .  S
O1043      H1066   0.966       .  S
C1044      O1061   1.281       .  A
C1044      O1053   1.277       .  A
C1044      C2453   1.489       .  S
O1045     Ni1064   1.910       .  S
O1045      C1051   1.264       .  A
O1046     Ni1064   1.902       .  S
O1046      C1048   1.266       .  A
Ni1047     O1050   1.925       .  S
Ni1047     O1052   1.899       .  S
C1048      O1058   1.269       .  A
C1048      C2495   1.466       .  S
O1049     Ni1065   1.934       .  S
O1049      C1055   1.284       .  A
O1050      C1055   1.278       .  A
C1051      C2705   1.479       .  S
O1052      C1054   1.269       .  A
O1053     Ni1064   1.916       .  S
C1054      O1060   1.275       .  A
C1054      C3108   1.491       .  S
C1055      C2464   1.478       .  S
H1056      O1057   0.966       .  S
O1057     Ni1065   1.925       .  S
O1057     Ni1059   1.898       .  S
O1057     Ni1064   1.904       .  S
O1058     Ni1059   1.923       .  S
Ni1059     O1063   1.903       .  S
Ni1059     O1061   1.931       .  S
O1060     Ni1065   1.933       .  S
C1062      O1063   1.269       .  A
C1062      C2478   1.488       .  S
O1067     Ni1073   1.939       .  S
O1067      C1088   1.272   1_556  A
O1068     Ni1091   1.918       .  S
O1068      C1077   1.272       .  A
O1069     Ni1073   1.909       .  S
O1069     Ni1091   1.899       .  S
O1069     Ni1085   1.900   1_556  S
O1069      H1092   0.966       .  S
C1070      O1087   1.267       .  A
C1070      O1079   1.268       .  A
C1070      C2467   1.478       .  S
O1071     Ni1090   1.899       .  S
O1071      C1077   1.266   1_554  A
O1072     Ni1090   1.891       .  S
O1072      C1074   1.264       .  A
Ni1073     O1076   1.910       .  S
Ni1073     O1078   1.922       .  S
C1074      O1084   1.280       .  A
C1074      C2439   1.481       .  S
O1075     Ni1091   1.940       .  S
O1075      C1081   1.285       .  A
O1076      C1081   1.276       .  A
C1077      C2674   1.463       .  S
O1078      C1080   1.272       .  A
O1079     Ni1090   1.929       .  S
C1080      O1086   1.272       .  A
C1080      C3069   1.481       .  S
C1081      C2450   1.492       .  S
H1082      O1083   0.966       .  S
O1083     Ni1091   1.942   1_554  S
O1083     Ni1085   1.911       .  S
O1083     Ni1090   1.916       .  S
O1084     Ni1085   1.957       .  S
Ni1085     O1089   1.892       .  S
Ni1085     O1087   1.914       .  S
O1086     Ni1091   1.930       .  S
C1088      O1089   1.263       .  A
C1088      C2422   1.474       .  S
O1093     Ni1099   1.942       .  S
O1093      C1114   1.275       .  A
O1094     Ni1117   1.932       .  S
O1094      C1103   1.274       .  A
O1095     Ni1099   1.896       .  S
O1095     Ni1117   1.905       .  S
O1095     Ni1111   1.915       .  S
O1095      H1118   0.966       .  S
C1096      O1113   1.284       .  A
C1096      O1105   1.274       .  A
C1096      C2380   1.491   1_554  S
O1097     Ni1116   1.903       .  S
O1097      C1103   1.263       .  A
O1098     Ni1116   1.899       .  S
O1098      C1100   1.265       .  A
Ni1099     O1102   1.929       .  S
Ni1099     O1104   1.907       .  S
C1100      O1110   1.268       .  A
C1100      C2436   1.473       .  S
O1101     Ni1117   1.920       .  S
O1101      C1107   1.280       .  A
O1102      C1107   1.279       .  A
C1103      C2831   1.481       .  S
O1104      C1106   1.269       .  A
O1105     Ni1116   1.904       .  S
C1106      O1112   1.277       .  A
C1106      C2366   1.478       .  S
C1107      C2394   1.477       .  S
H1108      O1109   0.966       .  S
O1109     Ni1117   1.919       .  S
O1109     Ni1111   1.891       .  S
O1109     Ni1116   1.896       .  S
O1110     Ni1111   1.927       .  S
Ni1111     O1115   1.897       .  S
Ni1111     O1113   1.936       .  S
O1112     Ni1117   1.937       .  S
C1114      O1115   1.266       .  A
C1114      C2411   1.469       .  S
O1119     Ni1125   1.929       .  S
O1119      C1140   1.272       .  A
O1120     Ni1143   1.926       .  S
O1120      C1129   1.270       .  A
O1121     Ni1125   1.900       .  S
O1121     Ni1143   1.906       .  S
O1121     Ni1137   1.913       .  S
O1121      H1144   0.966       .  S
C1122      O1139   1.280       .  A
C1122      O1131   1.276       .  A
C1122      C2397   1.479       .  S
O1123     Ni1142   1.912       .  S
O1123      C1129   1.266       .  A
O1124     Ni1142   1.904       .  S
O1124      C1126   1.267       .  A
Ni1125     O1128   1.924       .  S
Ni1125     O1130   1.904       .  S
C1126      O1136   1.271       .  A
C1126      C2492   1.469       .  S
O1127     Ni1143   1.919       .  S
O1127      C1133   1.281       .  A
O1128      C1133   1.277       .  A
C1129      C2775   1.484       .  S
O1130      C1132   1.268       .  A
O1131     Ni1142   1.912       .  S
C1132      O1138   1.272       .  A
C1132      C2338   1.474       .  S
C1133      C2383   1.481       .  S
H1134      O1135   0.966       .  S
O1135     Ni1143   1.922       .  S
O1135     Ni1137   1.899       .  S
O1135     Ni1142   1.904       .  S
O1136     Ni1137   1.926       .  S
Ni1137     O1141   1.905       .  S
Ni1137     O1139   1.932       .  S
O1138     Ni1143   1.929       .  S
C1140      O1141   1.269       .  A
C1140      C2352   1.477       .  S
O1145     Ni1151   1.943       .  S
O1145      C1166   1.276       .  A
O1146     Ni1169   1.918       .  S
O1146      C1155   1.270       .  A
O1147     Ni1151   1.903       .  S
O1147     Ni1169   1.900       .  S
O1147     Ni1163   1.905       .  S
O1147      H1170   0.966       .  S
C1148      O1165   1.274       .  A
C1148      O1157   1.274       .  A
C1148      C2296   1.473   1_554  S
O1149     Ni1168   1.916       .  S
O1149      C1155   1.267       .  A
O1150     Ni1168   1.911       .  S
O1150      C1152   1.268       .  A
Ni1151     O1154   1.926       .  S
Ni1151     O1156   1.912       .  S
C1152      O1162   1.276       .  A
C1152      C2327   1.483       .  S
O1153     Ni1169   1.924       .  S
O1153      C1159   1.283       .  A
O1154      C1159   1.280       .  A
C1155      C2618   1.468       .  S
O1156      C1158   1.270       .  A
O1157     Ni1168   1.921       .  S
C1158      O1164   1.273       .  A
C1158      C3489   1.486       .  S
C1159      C2310   1.486       .  S
H1160      O1161   0.966       .  S
O1161     Ni1169   1.927       .  S
O1161     Ni1163   1.902       .  S
O1161     Ni1168   1.909       .  S
O1162     Ni1163   1.941       .  S
Ni1163     O1167   1.893       .  S
Ni1163     O1165   1.925       .  S
O1164     Ni1169   1.930       .  S
C1166      O1167   1.267       .  A
C1166      C2425   1.477       .  S
O1171     Ni1177   1.934       .  S
O1171      C1192   1.273       .  A
O1172     Ni1195   1.932       .  S
O1172      C1181   1.272       .  A
O1173     Ni1177   1.906       .  S
O1173     Ni1195   1.909       .  S
O1173     Ni1189   1.919       .  S
O1173      H1196   0.966       .  S
C1174      O1191   1.283       .  A
C1174      O1183   1.275       .  A
C1174      C2313   1.482       .  S
O1175     Ni1194   1.906       .  S
O1175      C1181   1.266       .  A
O1176     Ni1194   1.910       .  S
O1176      C1178   1.268       .  A
Ni1177     O1180   1.921       .  S
Ni1177     O1182   1.905       .  S
C1178      O1188   1.272       .  A
C1178      C2282   1.480       .  S
O1179     Ni1195   1.925       .  S
O1179      C1185   1.282       .  A
O1180      C1185   1.276       .  A
C1181      C2590   1.489       .  S
O1182      C1184   1.270       .  A
O1183     Ni1194   1.910       .  S
C1184      O1190   1.270       .  A
C1184      C3433   1.483       .  S
C1185      C2299   1.471       .  S
H1186      O1187   0.966       .  S
O1187     Ni1195   1.926       .  S
O1187     Ni1189   1.895       .  S
O1187     Ni1194   1.904       .  S
O1188     Ni1189   1.935       .  S
Ni1189     O1193   1.904       .  S
Ni1189     O1191   1.938       .  S
O1190     Ni1195   1.928       .  S
C1192      O1193   1.268       .  A
C1192      C2481   1.471       .  S
O1197     Ni1203   1.929       .  S
O1197      C1218   1.271       .  A
O1198     Ni1221   1.921       .  S
O1198      C1207   1.270       .  A
O1199     Ni1203   1.901       .  S
O1199     Ni1221   1.904       .  S
O1199     Ni1215   1.920       .  S
O1199      H1222   0.966       .  S
C1200      O1217   1.284       .  A
C1200      O1209   1.273       .  A
C1200      C2254   1.476       .  S
O1201     Ni1220   1.910       .  S
O1201      C1207   1.265       .  A
O1202     Ni1220   1.908       .  S
O1202      C1204   1.267       .  A
Ni1203     O1206   1.923       .  S
Ni1203     O1208   1.909       .  S
C1204      O1214   1.268       .  A
C1204      C2285   1.472       .  S
O1205     Ni1221   1.921       .  S
O1205      C1211   1.278       .  A
O1206      C1211   1.277       .  A
C1207      C2551   1.471       .  S
O1208      C1210   1.271       .  A
O1209     Ni1220   1.909       .  S
C1210      O1216   1.277       .  A
C1210      C2240   1.490       .  S
C1211      C2268   1.473       .  S
H1212      O1213   0.966       .  S
O1213     Ni1221   1.918       .  S
O1213     Ni1215   1.894       .  S
O1213     Ni1220   1.904       .  S
O1214     Ni1215   1.925       .  S
Ni1215     O1219   1.902       .  S
Ni1215     O1217   1.934       .  S
O1216     Ni1221   1.937       .  S
C1218      O1219   1.268       .  A
C1218      C2355   1.473       .  S
O1223     Ni1229   1.939       .  S
O1223      C1244   1.272   1_556  A
O1224     Ni1247   1.925       .  S
O1224      C1233   1.272       .  A
O1225     Ni1229   1.907       .  S
O1225     Ni1247   1.908       .  S
O1225     Ni1241   1.907   1_556  S
O1225      H1248   0.966       .  S
C1226      O1243   1.273       .  A
C1226      O1235   1.276       .  A
C1226      C2271   1.476       .  S
O1227     Ni1246   1.916       .  S
O1227      C1233   1.266   1_554  A
O1228     Ni1246   1.899       .  S
O1228      C1230   1.265       .  A
Ni1229     O1232   1.921       .  S
Ni1229     O1234   1.904       .  S
C1230      O1240   1.274       .  A
C1230      C2324   1.474       .  S
O1231     Ni1247   1.929       .  S
O1231      C1237   1.281       .  A
O1232      C1237   1.276       .  A
C1233      C2523   1.474       .  S
O1234      C1236   1.270       .  A
O1235     Ni1246   1.914       .  S
C1236      O1242   1.275       .  A
C1236      C2226   1.491       .  S
C1237      C2257   1.479       .  S
H1238      O1239   0.966       .  S
O1239     Ni1247   1.921   1_554  S
O1239     Ni1241   1.902       .  S
O1239     Ni1246   1.910       .  S
O1240     Ni1241   1.938       .  S
Ni1241     O1245   1.897       .  S
Ni1241     O1243   1.916       .  S
O1242     Ni1247   1.938       .  S
C1244      O1245   1.265       .  A
C1244      C2408   1.484       .  S
O1249     Ni1255   1.903       .  S
O1249      C1270   1.262       .  A
O1250     Ni1273   1.900       .  S
O1250      C1259   1.266       .  A
O1251     Ni1255   1.904       .  S
O1251     Ni1273   1.898       .  S
O1251     Ni1267   1.918       .  S
O1251      H1274   0.966       .  S
C1252      O1269   1.279   1_556  A
C1252      O1261   1.279       .  A
C1252      C2170   1.489       .  S
O1253     Ni1272   1.942       .  S
O1253      C1259   1.275       .  A
O1254     Ni1272   1.906       .  S
O1254      C1256   1.272       .  A
Ni1255     O1258   1.907       .  S
Ni1255     O1260   1.899       .  S
C1256      O1266   1.279       .  A
C1256      C4105   1.501       .  S
O1257     Ni1273   1.923       .  S
O1257      C1263   1.280       .  A
O1258      C1263   1.275       .  A
C1259      C2201   1.478       .  S
O1260      C1262   1.264       .  A
O1261     Ni1272   1.922   1_556  S
C1262      O1268   1.267       .  A
C1262      C2215   1.467       .  S
C1263      C2184   1.473       .  S
H1264      O1265   0.966       .  S
O1265     Ni1273   1.911       .  S
O1265     Ni1267   1.907       .  S
O1265     Ni1272   1.895       .  S
O1266     Ni1267   1.945       .  S
Ni1267     O1271   1.941       .  S
Ni1267     O1269   1.917       .  S
O1268     Ni1273   1.924       .  S
C1270      O1271   1.275       .  A
C1270      C2159   1.491       .  S
O1275     Ni1281   1.907       .  S
O1275      C1296   1.264       .  A
O1276     Ni1299   1.889       .  S
O1276      C1285   1.262       .  A
O1277     Ni1281   1.909       .  S
O1277     Ni1299   1.896       .  S
O1277     Ni1293   1.915       .  S
O1277      H1300   0.966       .  S
C1278      O1295   1.278       .  A
C1278      O1287   1.276       .  A
C1278      C2187   1.474       .  S
O1279     Ni1298   1.929       .  S
O1279      C1285   1.271       .  A
O1280     Ni1298   1.904       .  S
O1280      C1282   1.269       .  A
Ni1281     O1284   1.918       .  S
Ni1281     O1286   1.897       .  S
C1282      O1292   1.273       .  A
C1282      C4147   1.483       .  S
O1283     Ni1299   1.913       .  S
O1283      C1289   1.276       .  A
O1284      C1289   1.276       .  A
C1285      C2128   1.473       .  S
O1286      C1288   1.264       .  A
O1287     Ni1298   1.915       .  S
C1288      O1294   1.269       .  A
C1288      C2142   1.470       .  S
C1289      C2173   1.487       .  S
H1290      O1291   0.966       .  S
O1291     Ni1299   1.914       .  S
O1291     Ni1293   1.906       .  S
O1291     Ni1298   1.910       .  S
O1292     Ni1293   1.925       .  S
Ni1293     O1297   1.915       .  S
Ni1293     O1295   1.916       .  S
O1294     Ni1299   1.930       .  S
C1296      O1297   1.267       .  A
C1296      C2117   1.471       .  S
O1301     Ni1307   1.900       .  S
O1301      C1322   1.263       .  A
O1302     Ni1325   1.896       .  S
O1302      C1311   1.267       .  A
O1303     Ni1307   1.900       .  S
O1303     Ni1325   1.891       .  S
O1303     Ni1319   1.923       .  S
O1303      H1326   0.966       .  S
C1304      O1321   1.278       .  A
C1304      O1313   1.280       .  A
C1304      C2075   1.493       .  S
O1305     Ni1324   1.940       .  S
O1305      C1311   1.274       .  A
O1306     Ni1324   1.904       .  S
O1306      C1308   1.270       .  A
Ni1307     O1310   1.908       .  S
Ni1307     O1312   1.902       .  S
C1308      O1318   1.276       .  A
C1308      C2243   1.486       .  S
O1309     Ni1325   1.932       .  S
O1309      C1315   1.281       .  A
O1310      C1315   1.276       .  A
C1311      C2103   1.488       .  S
O1312      C1314   1.264       .  A
O1313     Ni1324   1.925       .  S
C1314      O1320   1.270       .  A
C1314      C2212   1.479       .  S
C1315      C2086   1.473       .  S
H1316      O1317   0.966       .  S
O1317     Ni1325   1.913       .  S
O1317     Ni1319   1.904       .  S
O1317     Ni1324   1.897       .  S
O1318     Ni1319   1.934       .  S
Ni1319     O1323   1.929       .  S
Ni1319     O1321   1.916       .  S
O1320     Ni1325   1.930       .  S
C1322      O1323   1.271       .  A
C1322      C2061   1.489       .  S
O1327     Ni1333   1.910       .  S
O1327      C1348   1.266       .  A
O1328     Ni1351   1.901       .  S
O1328      C1337   1.268       .  A
O1329     Ni1333   1.899       .  S
O1329     Ni1351   1.896       .  S
O1329     Ni1345   1.919       .  S
O1329      H1352   0.965       .  S
C1330      O1347   1.281       .  A
C1330      O1339   1.280       .  A
C1330      C2089   1.481       .  S
O1331     Ni1350   1.942       .  S
O1331      C1337   1.275       .  A
O1332     Ni1350   1.911       .  S
O1332      C1334   1.270       .  A
Ni1333     O1336   1.912       .  S
Ni1333     O1338   1.907       .  S
C1334      O1344   1.270       .  A
C1334      C2229   1.488       .  S
O1335     Ni1351   1.930       .  S
O1335      C1341   1.279       .  A
O1336      C1341   1.276       .  A
C1337      C2044   1.470       .  S
O1338      C1340   1.268       .  A
O1339     Ni1350   1.932       .  S
C1340      O1346   1.272       .  A
C1340      C2145   1.480       .  S
C1341      C2072   1.493       .  S
H1342      O1343   0.966       .  S
O1343     Ni1351   1.907       .  S
O1343     Ni1345   1.906       .  S
O1343     Ni1350   1.899       .  S
O1344     Ni1345   1.928       .  S
Ni1345     O1349   1.931       .  S
Ni1345     O1347   1.911       .  S
O1346     Ni1351   1.929       .  S
C1348      O1349   1.271       .  A
C1348      C2030   1.487       .  S
O1353     Ni1359   1.902       .  S
O1353      C1374   1.261       .  A
O1354     Ni1377   1.897       .  S
O1354      C1363   1.266       .  A
O1355     Ni1359   1.904       .  S
O1355     Ni1377   1.893       .  S
O1355     Ni1371   1.920       .  S
O1355      H1378   0.966       .  S
C1356      O1373   1.278       .  A
C1356      O1365   1.277       .  A
C1356      C1988   1.466       .  S
O1357     Ni1376   1.944       .  S
O1357      C1363   1.275       .  A
O1358     Ni1376   1.908       .  S
O1358      C1360   1.272       .  A
Ni1359     O1362   1.913       .  S
Ni1359     O1364   1.896       .  S
C1360      O1370   1.273       .  A
C1360      C3587   1.489       .  S
O1361     Ni1377   1.922       .  S
O1361      C1367   1.279       .  A
O1362      C1367   1.277       .  A
C1363      C2198   1.484       .  S
O1364      C1366   1.263       .  A
O1365     Ni1376   1.924       .  S
C1366      O1372   1.269       .  A
C1366      C2016   1.466       .  S
C1367      C2005   1.483       .  S
H1368      O1369   0.966       .  S
O1369     Ni1377   1.912       .  S
O1369     Ni1371   1.911       .  S
O1369     Ni1376   1.902       .  S
O1370     Ni1371   1.928       .  S
Ni1371     O1375   1.933       .  S
Ni1371     O1373   1.919       .  S
O1372     Ni1377   1.928       .  S
C1374      O1375   1.272       .  A
C1374      C1974   1.487       .  S
O1379     Ni1385   1.905       .  S
O1379      C1400   1.266       .  A
O1380     Ni1403   1.890       .  S
O1380      C1389   1.266       .  A
O1381     Ni1385   1.893       .  S
O1381     Ni1403   1.890       .  S
O1381     Ni1397   1.922       .  S
O1381      H1404   0.965       .  S
C1382      O1399   1.281       .  A
C1382      O1391   1.278       .  A
C1382      C2002   1.481       .  S
O1383     Ni1402   1.932       .  S
O1383      C1389   1.272       .  A
O1384     Ni1402   1.905       .  S
O1384      C1386   1.268       .  A
Ni1385     O1388   1.914       .  S
Ni1385     O1390   1.907       .  S
C1386      O1396   1.274       .  A
C1386      C3573   1.476       .  S
O1387     Ni1403   1.928       .  S
O1387      C1393   1.278       .  A
O1388      C1393   1.276       .  A
C1389      C2131   1.464       .  S
O1390      C1392   1.266       .  A
O1391     Ni1402   1.919       .  S
C1392      O1398   1.273       .  A
C1392      C1960   1.481       .  S
C1393      C1991   1.469       .  S
H1394      O1395   0.966       .  S
O1395     Ni1403   1.908       .  S
O1395     Ni1397   1.901       .  S
O1395     Ni1402   1.897       .  S
O1396     Ni1397   1.935       .  S
Ni1397     O1401   1.923       .  S
Ni1397     O1399   1.921       .  S
O1398     Ni1403   1.932       .  S
C1400      O1401   1.271       .  A
C1400      C1949   1.487       .  S
O1405     Ni1411   1.916       .  S
O1405      C1426   1.267       .  A
O1406     Ni1429   1.897       .  S
O1406      C1415   1.265       .  A
O1407     Ni1411   1.902       .  S
O1407     Ni1429   1.896       .  S
O1407     Ni1423   1.915       .  S
O1407      H1430   0.966       .  S
C1408      O1425   1.280   1_556  A
C1408      O1417   1.277       .  A
C1408      C1921   1.478       .  S
O1409     Ni1428   1.935       .  S
O1409      C1415   1.273       .  A
O1410     Ni1428   1.905       .  S
O1410      C1412   1.270       .  A
Ni1411     O1414   1.913       .  S
Ni1411     O1416   1.900       .  S
C1412      O1422   1.273       .  A
C1412      C2509   1.492       .  S
O1413     Ni1429   1.922       .  S
O1413      C1419   1.276       .  A
O1414      C1419   1.276       .  A
C1415      C2100   1.468       .  S
O1416      C1418   1.266       .  A
O1417     Ni1428   1.918   1_556  S
C1418      O1424   1.270       .  A
C1418      C2019   1.468       .  S
C1419      C1932   1.473       .  S
H1420      O1421   0.966       .  S
O1421     Ni1429   1.909       .  S
O1421     Ni1423   1.904       .  S
O1421     Ni1428   1.902       .  S
O1422     Ni1423   1.924       .  S
Ni1423     O1427   1.921       .  S
Ni1423     O1425   1.921       .  S
O1424     Ni1429   1.926       .  S
C1426      O1427   1.270       .  A
C1426      C1907   1.470       .  S
O1431     Ni1437   1.903       .  S
O1431      C1452   1.264       .  A
O1432     Ni1455   1.902       .  S
O1432      C1441   1.269       .  A
O1433     Ni1437   1.907       .  S
O1433     Ni1455   1.897       .  S
O1433     Ni1449   1.920       .  S
O1433      H1456   0.966       .  S
C1434      O1451   1.277       .  A
C1434      O1443   1.279       .  A
C1434      C1935   1.474       .  S
O1435     Ni1454   1.938       .  S
O1435      C1441   1.273       .  A
O1436     Ni1454   1.910       .  S
O1436      C1438   1.270       .  A
Ni1437     O1440   1.907       .  S
Ni1437     O1442   1.906       .  S
C1438      O1448   1.275       .  A
C1438      C2537   1.490       .  S
O1439     Ni1455   1.928       .  S
O1439      C1445   1.282       .  A
O1440      C1445   1.273       .  A
C1441      C2047   1.492       .  S
O1442      C1444   1.267       .  A
O1443     Ni1454   1.929       .  S
C1444      O1450   1.269       .  A
C1444      C1963   1.472       .  S
C1445      C1918   1.477       .  S
H1446      O1447   0.966       .  S
O1447     Ni1455   1.915       .  S
O1447     Ni1449   1.903       .  S
O1447     Ni1454   1.902       .  S
O1448     Ni1449   1.933       .  S
Ni1449     O1453   1.919       .  S
Ni1449     O1451   1.916       .  S
O1450     Ni1455   1.926       .  S
C1452      O1453   1.269       .  A
C1452      C1890   1.470       .  S
O1457     Ni1463   1.918   1_554  S
O1457      C1478   1.266       .  A
O1458     Ni1481   1.887       .  S
O1458      C1467   1.263       .  A
O1459     Ni1463   1.909       .  S
O1459     Ni1481   1.896       .  S
O1459     Ni1475   1.919   1_556  S
O1459      H1482   0.966       .  S
C1460      O1477   1.280       .  A
C1460      O1469   1.278       .  A
C1460      C1848   1.486       .  S
O1461     Ni1480   1.936       .  S
O1461      C1467   1.273   1_554  A
O1462     Ni1480   1.901       .  S
O1462      C1464   1.268       .  A
Ni1463     O1466   1.920       .  S
Ni1463     O1468   1.906       .  S
C1464      O1474   1.278       .  A
C1464      C3937   1.495       .  S
O1465     Ni1481   1.925       .  S
O1465      C1471   1.278       .  A
O1466      C1471   1.277       .  A
C1467      C1862   1.457       .  S
O1468      C1470   1.266       .  A
O1469     Ni1480   1.925       .  S
C1470      O1476   1.268       .  A
C1470      C1876   1.469       .  S
C1471      C1837   1.480       .  S
H1472      O1473   0.965       .  S
O1473     Ni1481   1.908   1_554  S
O1473     Ni1475   1.896       .  S
O1473     Ni1480   1.898       .  S
O1474     Ni1475   1.942       .  S
Ni1475     O1479   1.915       .  S
Ni1475     O1477   1.916       .  S
O1476     Ni1481   1.923       .  S
C1478      O1479   1.270       .  A
C1478      C2156   1.467       .  S
O1483     Ni1489   1.906       .  S
O1483      C1504   1.264       .  A
O1484     Ni1507   1.895       .  S
O1484      C1493   1.266       .  A
O1485     Ni1489   1.907       .  S
O1485     Ni1507   1.895       .  S
O1485     Ni1501   1.916       .  S
O1485      H1508   0.966       .  S
C1486      O1503   1.277       .  A
C1486      O1495   1.278       .  A
C1486      C1834   1.480       .  S
O1487     Ni1506   1.941       .  S
O1487      C1493   1.275       .  A
O1488     Ni1506   1.914       .  S
O1488      C1490   1.272       .  A
Ni1489     O1492   1.915       .  S
Ni1489     O1494   1.899       .  S
C1490      O1500   1.273       .  A
C1490      C3909   1.495       .  S
O1491     Ni1507   1.919       .  S
O1491      C1497   1.278       .  A
O1492      C1497   1.275       .  A
C1493      C1806   1.487       .  S
O1494      C1496   1.265       .  A
O1495     Ni1506   1.926       .  S
C1496      O1502   1.272       .  A
C1496      C1820   1.473       .  S
C1497      C1851   1.486       .  S
H1498      O1499   0.966       .  S
O1499     Ni1507   1.918       .  S
O1499     Ni1501   1.908       .  S
O1499     Ni1506   1.911       .  S
O1500     Ni1501   1.926       .  S
Ni1501     O1505   1.916       .  S
Ni1501     O1503   1.919       .  S
O1502     Ni1507   1.938       .  S
C1504      O1505   1.268       .  A
C1504      C2114   1.468       .  S
O1509     Ni1515   1.910       .  S
O1509      C1530   1.266       .  A
O1510     Ni1533   1.896       .  S
O1510      C1519   1.267       .  A
O1511     Ni1515   1.899       .  S
O1511     Ni1533   1.891       .  S
O1511     Ni1527   1.911       .  S
O1511      H1534   0.966       .  S
C1512      O1529   1.277       .  A
C1512      O1521   1.279       .  A
C1512      C1778   1.479       .  S
O1513     Ni1532   1.937       .  S
O1513      C1519   1.274       .  A
O1514     Ni1532   1.904       .  S
O1514      C1516   1.268       .  A
Ni1515     O1518   1.903       .  S
Ni1515     O1520   1.916       .  S
C1516      O1526   1.275       .  A
C1516      C2369   1.475       .  S
O1517     Ni1533   1.932       .  S
O1517      C1523   1.281       .  A
O1518      C1523   1.275       .  A
C1519      C1792   1.467       .  S
O1520      C1522   1.269       .  A
O1521     Ni1532   1.923       .  S
C1522      O1528   1.270       .  A
C1522      C1823   1.480       .  S
C1523      C1764   1.483       .  S
H1524      O1525   0.966       .  S
O1525     Ni1533   1.910       .  S
O1525     Ni1527   1.900       .  S
O1525     Ni1532   1.898       .  S
O1526     Ni1527   1.936       .  S
Ni1527     O1531   1.918       .  S
Ni1527     O1529   1.910       .  S
O1528     Ni1533   1.928       .  S
C1530      O1531   1.270       .  A
C1530      C2058   1.464       .  S
O1535     Ni1541   1.913       .  S
O1535      C1556   1.265       .  A
O1536     Ni1559   1.904       .  S
O1536      C1545   1.268       .  A
O1537     Ni1541   1.906       .  S
O1537     Ni1559   1.899       .  S
O1537     Ni1553   1.915       .  S
O1537      H1560   0.966       .  S
C1538      O1555   1.278       .  A
C1538      O1547   1.278       .  A
C1538      C1767   1.488       .  S
O1539     Ni1558   1.934       .  S
O1539      C1545   1.273       .  A
O1540     Ni1558   1.907       .  S
O1540      C1542   1.269       .  A
Ni1541     O1544   1.911       .  S
Ni1541     O1546   1.898       .  S
C1542      O1552   1.273       .  A
C1542      C2341   1.473       .  S
O1543     Ni1559   1.918       .  S
O1543      C1549   1.277   1_556  A
O1544      C1549   1.276   1_556  A
C1545      C1750   1.487       .  S
O1546      C1548   1.265       .  A
O1547     Ni1558   1.921       .  S
C1548      O1554   1.270       .  A
C1548      C1879   1.467       .  S
C1549      C1781   1.482       .  S
H1550      O1551   0.966       .  S
O1551     Ni1559   1.906       .  S
O1551     Ni1553   1.908       .  S
O1551     Ni1558   1.900       .  S
O1552     Ni1553   1.928       .  S
Ni1553     O1557   1.931       .  S
Ni1553     O1555   1.913       .  S
O1554     Ni1559   1.929       .  S
C1556      O1557   1.272       .  A
C1556      C2033   1.476       .  S
O1561     Ni1567   1.910       .  S
O1561      C1582   1.264       .  A
O1562     Ni1585   1.897       .  S
O1562      C1571   1.265       .  A
O1563     Ni1567   1.902       .  S
O1563     Ni1585   1.896   1_545  S
O1563     Ni1579   1.909       .  S
O1563      H1586   0.966       .  S
C1564      O1581   1.277   1_565  A
C1564      O1573   1.278       .  A
C1564      C1722   1.474       .  S
O1565     Ni1584   1.940       .  S
O1565      C1571   1.274       .  A
O1566     Ni1584   1.908       .  S
O1566      C1568   1.270       .  A
Ni1567     O1570   1.912       .  S
Ni1567     O1572   1.895       .  S
C1568      O1578   1.273   1_565  A
C1568      C3741   1.472       .  S
O1569     Ni1585   1.917       .  S
O1569      C1575   1.277   1_565  A
O1570      C1575   1.277       .  A
C1571      C1809   1.471       .  S
O1572      C1574   1.265       .  A
O1573     Ni1584   1.921       .  S
C1574      O1580   1.270   1_545  A
C1574      C1736   1.471       .  S
C1575      C1711   1.486       .  S
H1576      O1577   0.964       .  S
O1577     Ni1585   1.912       .  S
O1577     Ni1579   1.907   1_565  S
O1577     Ni1584   1.905       .  S
O1578     Ni1579   1.925       .  S
Ni1579     O1583   1.922       .  S
Ni1579     O1581   1.916       .  S
O1580     Ni1585   1.931       .  S
C1582      O1583   1.269       .  A
C1582      C1977   1.468       .  S
O1587     Ni1593   1.914       .  S
O1587      C1608   1.266       .  A
O1588     Ni1611   1.890       .  S
O1588      C1597   1.263       .  A
O1589     Ni1593   1.908       .  S
O1589     Ni1611   1.895   1_545  S
O1589     Ni1605   1.915       .  S
O1589      H1612   0.966       .  S
C1590      O1607   1.277   1_565  A
C1590      O1599   1.278       .  A
C1590      C1708   1.486       .  S
O1591     Ni1610   1.935       .  S
O1591      C1597   1.274       .  A
O1592     Ni1610   1.902       .  S
O1592      C1594   1.268       .  A
Ni1593     O1596   1.913       .  S
Ni1593     O1598   1.909       .  S
C1594      O1604   1.274   1_565  A
C1594      C3710   1.478       .  S
O1595     Ni1611   1.923       .  S
O1595      C1601   1.278   1_566  A
O1596      C1601   1.275   1_556  A
C1597      C1865   1.484       .  S
O1598      C1600   1.268       .  A
O1599     Ni1610   1.920       .  S
C1600      O1606   1.268   1_545  A
C1600      C1694   1.477       .  S
C1601      C1725   1.476       .  S
H1602      O1603   0.965       .  S
O1603     Ni1611   1.905       .  S
O1603     Ni1605   1.897   1_565  S
O1603     Ni1610   1.900       .  S
O1604     Ni1605   1.931       .  S
Ni1605     O1609   1.912       .  S
Ni1605     O1607   1.913       .  S
O1606     Ni1611   1.924       .  S
C1608      O1609   1.267       .  A
C1608      C1946   1.462       .  S
O1613     Ni1619   1.907   1_554  S
O1613      C1634   1.263       .  A
O1614     Ni1637   1.901       .  S
O1614      C1623   1.266       .  A
O1615     Ni1619   1.908       .  S
O1615     Ni1637   1.899   1_545  S
O1615     Ni1631   1.918   1_556  S
O1615      H1638   0.966       .  S
C1616      O1633   1.279   1_565  A
C1616      O1625   1.276       .  A
C1616      C1683   1.481       .  S
O1617     Ni1636   1.937       .  S
O1617      C1623   1.273   1_554  A
O1618     Ni1636   1.907       .  S
O1618      C1620   1.271       .  A
Ni1619     O1622   1.914       .  S
Ni1619     O1624   1.896       .  S
C1620      O1630   1.274   1_565  A
C1620      C2817   1.485       .  S
O1621     Ni1637   1.922       .  S
O1621      C1627   1.279   1_565  A
O1622      C1627   1.275       .  A
C1623      C1753   1.474       .  S
O1624      C1626   1.264       .  A
O1625     Ni1636   1.920       .  S
C1626      O1632   1.270   1_545  A
C1626      C1697   1.467       .  S
C1627      C1669   1.488       .  S
H1628      O1629   0.966       .  S
O1629     Ni1637   1.913   1_554  S
O1629     Ni1631   1.912   1_565  S
O1629     Ni1636   1.906       .  S
O1630     Ni1631   1.930       .  S
Ni1631     O1635   1.930       .  S
Ni1631     O1633   1.917       .  S
O1632     Ni1637   1.930       .  S
C1634      O1635   1.271       .  A
C1634      C1904   1.486       .  S
O1639     Ni1645   1.901       .  S
O1639      C1660   1.261       .  A
O1640     Ni1663   1.890       .  S
O1640      C1649   1.263       .  A
O1641     Ni1645   1.913       .  S
O1641     Ni1663   1.898   1_545  S
O1641     Ni1657   1.923       .  S
O1641      H1664   0.966       .  S
C1642      O1659   1.278   1_565  A
C1642      O1651   1.278       .  A
C1642      C1666   1.484       .  S
O1643     Ni1662   1.940       .  S
O1643      C1649   1.275       .  A
O1644     Ni1662   1.904       .  S
O1644      C1646   1.269       .  A
Ni1645     O1648   1.910       .  S
Ni1645     O1650   1.902       .  S
C1646      O1656   1.274   1_565  A
C1646      C2761   1.485       .  S
O1647     Ni1663   1.924       .  S
O1647      C1653   1.279   1_565  A
O1648      C1653   1.274       .  A
C1649      C1795   1.479       .  S
O1650      C1652   1.265       .  A
O1651     Ni1662   1.928       .  S
C1652      O1658   1.267   1_545  A
C1652      C1739   1.464       .  S
C1653      C1680   1.478       .  S
H1654      O1655   0.966       .  S
O1655     Ni1663   1.911       .  S
O1655     Ni1657   1.904   1_565  S
O1655     Ni1662   1.906       .  S
O1656     Ni1657   1.932       .  S
Ni1657     O1661   1.920       .  S
Ni1657     O1659   1.912       .  S
O1658     Ni1663   1.920       .  S
C1660      O1661   1.268       .  A
C1660      C1893   1.471       .  S
C1665      C1666   1.404   1_545  A
C1665      C1670   1.401       .  A
C1665      H1672   1.084       .  S
C1666      C1667   1.417       .  A
C1667      C1668   1.403       .  A
C1667      N1674   1.437       .  S
C1668      C1669   1.406   1_565  A
C1668      H1673   1.084       .  S
C1669      C1670   1.419       .  A
C1670      N1671   1.437       .  S
N1671      O1675   1.263       .  A
N1671      O1676   1.263       .  A
N1674      O1677   1.263       .  A
N1674      O1678   1.263       .  A
C1679      C1680   1.400   1_565  A
C1679      C1684   1.401       .  A
C1679      H1686   1.084       .  S
C1680      C1681   1.419       .  A
C1681      C1682   1.401       .  A
C1681      N1688   1.437       .  S
C1682      C1683   1.401   1_545  A
C1682      H1687   1.084       .  S
C1683      C1684   1.420       .  A
C1684      N1685   1.437       .  S
N1685      O1689   1.263       .  A
N1685      O1690   1.262       .  A
N1688      O1691   1.262       .  A
N1688      O1692   1.263       .  A
C1693      C1694   1.404       .  A
C1693      C1698   1.407       .  A
C1693      H1700   1.084   1_556  S
C1694      C1695   1.412   1_545  A
C1695      C1696   1.403       .  A
C1695      N1702   1.435       .  S
C1696      C1697   1.402   1_565  A
C1696      H1701   1.084       .  S
C1697      C1698   1.418       .  A
C1698      N1699   1.449   1_556  S
N1699      O1703   1.263       .  A
N1699      O1704   1.262       .  A
N1702      O1705   1.261       .  A
N1702      O1706   1.263       .  A
C1707      C1708   1.409       .  A
C1707      C1712   1.400       .  A
C1707      H1714   1.083       .  S
C1708      C1709   1.415   1_565  A
C1709      C1710   1.397       .  A
C1709      N1716   1.433       .  S
C1710      C1711   1.408       .  A
C1710      H1715   1.083       .  S
C1711      C1712   1.415   1_545  A
C1712      N1713   1.434       .  S
N1713      O1717   1.262       .  A
N1713      O1718   1.262       .  A
N1716      O1719   1.262       .  A
N1716      O1720   1.262       .  A
C1721      C1722   1.404   1_545  A
C1721      C1726   1.403       .  A
C1721      H1728   1.084       .  S
C1722      C1723   1.413       .  A
C1723      C1724   1.401       .  A
C1723      N1730   1.440       .  S
C1724      C1725   1.403   1_565  A
C1724      H1729   1.080       .  S
C1725      C1726   1.415       .  A
C1726      N1727   1.440       .  S
N1727      O1731   1.263       .  A
N1727      O1732   1.263       .  A
N1730      O1733   1.263       .  A
N1730      O1734   1.263       .  A
C1735      C1736   1.404       .  A
C1735      C1740   1.405       .  A
C1735      H1742   1.084       .  S
C1736      C1737   1.411   1_545  A
C1737      C1738   1.403       .  A
C1737      N1744   1.438       .  S
C1738      C1739   1.403   1_565  A
C1738      H1743   1.084       .  S
C1739      C1740   1.416       .  A
C1740      N1741   1.449       .  S
N1741      O1745   1.263       .  A
N1741      O1746   1.262       .  A
N1744      O1747   1.261       .  A
N1744      O1748   1.263       .  A
C1749      C1750   1.407       .  A
C1749      C1754   1.407       .  A
C1749      H1756   1.083       .  S
C1750      C1751   1.417       .  A
C1751      C1752   1.403       .  A
C1751      N1758   1.438       .  S
C1752      C1753   1.402       .  A
C1752      H1757   1.084       .  S
C1753      C1754   1.416       .  A
C1754      N1755   1.443       .  S
N1755      O1759   1.263       .  A
N1755      O1760   1.261       .  A
N1758      O1761   1.263       .  A
N1758      O1762   1.263       .  A
C1763      C1764   1.408       .  A
C1763      C1768   1.398       .  A
C1763      H1770   1.084       .  S
C1764      C1765   1.411       .  A
C1765      C1766   1.402       .  A
C1765      N1772   1.436       .  S
C1766      C1767   1.411       .  A
C1766      H1771   1.083       .  S
C1767      C1768   1.414       .  A
C1768      N1769   1.435       .  S
N1769      O1773   1.263       .  A
N1769      O1774   1.262       .  A
N1772      O1775   1.262       .  A
N1772      O1776   1.263       .  A
C1777      C1778   1.404       .  A
C1777      C1782   1.400       .  A
C1777      H1784   1.084       .  S
C1778      C1779   1.415       .  A
C1779      C1780   1.399       .  A
C1779      N1786   1.435       .  S
C1780      C1781   1.405       .  A
C1780      H1785   1.084       .  S
C1781      C1782   1.417       .  A
C1782      N1783   1.435       .  S
N1783      O1787   1.262       .  A
N1783      O1788   1.263       .  A
N1786      O1789   1.262       .  A
N1786      O1790   1.262       .  A
C1791      C1792   1.399       .  A
C1791      C1796   1.396       .  A
C1791      H1798   1.085       .  S
C1792      C1793   1.418       .  A
C1793      C1794   1.407       .  A
C1793      N1800   1.445       .  S
C1794      C1795   1.405       .  A
C1794      H1799   1.083       .  S
C1795      C1796   1.414       .  A
C1796      N1797   1.433       .  S
N1797      O1801   1.262       .  A
N1797      O1802   1.262       .  A
N1800      O1803   1.262       .  A
N1800      O1804   1.263       .  A
C1805      C1806   1.407       .  A
C1805      C1810   1.409       .  A
C1805      H1812   1.083       .  S
C1806      C1807   1.417       .  A
C1807      C1808   1.400       .  A
C1807      N1814   1.437       .  S
C1808      C1809   1.400       .  A
C1808      H1813   1.084       .  S
C1809      C1810   1.417       .  A
C1810      N1811   1.444       .  S
N1811      O1815   1.263       .  A
N1811      O1816   1.262       .  A
N1814      O1817   1.263       .  A
N1814      O1818   1.263       .  A
C1819      C1820   1.399       .  A
C1819      C1824   1.402       .  A
C1819      H1826   1.084       .  S
C1820      C1821   1.416       .  A
C1821      C1822   1.407       .  A
C1821      N1828   1.438       .  S
C1822      C1823   1.402       .  A
C1822      H1827   1.084       .  S
C1823      C1824   1.415       .  A
C1824      N1825   1.437       .  S
N1825      O1829   1.263       .  A
N1825      O1830   1.261       .  A
N1828      O1831   1.261       .  A
N1828      O1832   1.263       .  A
C1833      C1834   1.405       .  A
C1833      C1838   1.405       .  A
C1833      H1840   1.084       .  S
C1834      C1835   1.415       .  A
C1835      C1836   1.406       .  A
C1835      N1842   1.441       .  S
C1836      C1837   1.405       .  A
C1836      H1841   1.084       .  S
C1837      C1838   1.415       .  A
C1838      N1839   1.440       .  S
N1839      O1843   1.263       .  A
N1839      O1844   1.263       .  A
N1842      O1845   1.263       .  A
N1842      O1846   1.263       .  A
C1847      C1848   1.404       .  A
C1847      C1852   1.400       .  A
C1847      H1854   1.084       .  S
C1848      C1849   1.418       .  A
C1849      C1850   1.402       .  A
C1849      N1856   1.437       .  S
C1850      C1851   1.405       .  A
C1850      H1855   1.084       .  S
C1851      C1852   1.418       .  A
C1852      N1853   1.437       .  S
N1853      O1857   1.263       .  A
N1853      O1858   1.263       .  A
N1856      O1859   1.263       .  A
N1856      O1860   1.263       .  A
C1861      C1862   1.395       .  A
C1861      C1866   1.394       .  A
C1861      H1868   1.085   1_556  S
C1862      C1863   1.412       .  A
C1863      C1864   1.404       .  A
C1863      N1870   1.444       .  S
C1864      C1865   1.408       .  A
C1864      H1869   1.083       .  S
C1865      C1866   1.417       .  A
C1866      N1867   1.431       .  S
N1867      O1871   1.262       .  A
N1867      O1872   1.261   1_556  A
N1870      O1873   1.263       .  A
N1870      O1874   1.263       .  A
C1875      C1876   1.404       .  A
C1875      C1880   1.406       .  A
C1875      H1882   1.084       .  S
C1876      C1877   1.413       .  A
C1877      C1878   1.403       .  A
C1877      N1884   1.444   1_556  S
C1878      C1879   1.403       .  A
C1878      H1883   1.084   1_556  S
C1879      C1880   1.414       .  A
C1880      N1881   1.445       .  S
N1881      O1885   1.263       .  A
N1881      O1886   1.262       .  A
N1884      O1887   1.262       .  A
N1884      O1888   1.263       .  A
C1889      C1890   1.397       .  A
C1889      C1894   1.399       .  A
C1889      H1896   1.084       .  S
C1890      C1891   1.418       .  A
C1891      C1892   1.402       .  A
C1891      N1898   1.439       .  S
C1892      C1893   1.398       .  A
C1892      H1897   1.084       .  S
C1893      C1894   1.416       .  A
C1894      N1895   1.432       .  S
N1895      O1899   1.262       .  A
N1895      O1900   1.262       .  A
N1898      O1901   1.263       .  A
N1898      O1902   1.263       .  A
C1903      C1904   1.405       .  A
C1903      C1908   1.411       .  A
C1903      H1910   1.082       .  S
C1904      C1905   1.415       .  A
C1905      C1906   1.394       .  A
C1905      N1912   1.430       .  S
C1906      C1907   1.398       .  A
C1906      H1911   1.085       .  S
C1907      C1908   1.419       .  A
C1908      N1909   1.443       .  S
N1909      O1913   1.263       .  A
N1909      O1914   1.262       .  A
N1912      O1915   1.262   1_554  A
N1912      O1916   1.262       .  A
C1917      C1918   1.399       .  A
C1917      C1922   1.400       .  A
C1917      H1924   1.084       .  S
C1918      C1919   1.422       .  A
C1919      C1920   1.402       .  A
C1919      N1926   1.440       .  S
C1920      C1921   1.399       .  A
C1920      H1925   1.084       .  S
C1921      C1922   1.419       .  A
C1922      N1923   1.438       .  S
N1923      O1927   1.263       .  A
N1923      O1928   1.262       .  A
N1926      O1929   1.263       .  A
N1926      O1930   1.262       .  A
C1931      C1932   1.399       .  A
C1931      C1936   1.398       .  A
C1931      H1938   1.085       .  S
C1932      C1933   1.419       .  A
C1933      C1934   1.406       .  A
C1933      N1940   1.439       .  S
C1934      C1935   1.402       .  A
C1934      H1939   1.084       .  S
C1935      C1936   1.413       .  A
C1936      N1937   1.434       .  S
N1937      O1941   1.262       .  A
N1937      O1942   1.262       .  A
N1940      O1943   1.261       .  A
N1940      O1944   1.263       .  A
C1945      C1946   1.402       .  A
C1945      C1950   1.402       .  A
C1945      H1952   1.084       .  S
C1946      C1947   1.413       .  A
C1947      C1948   1.403       .  A
C1947      N1954   1.448       .  S
C1948      C1949   1.411       .  A
C1948      H1953   1.083       .  S
C1949      C1950   1.415       .  A
C1950      N1951   1.436       .  S
N1951      O1955   1.263       .  A
N1951      O1956   1.263       .  A
N1954      O1957   1.262       .  A
N1954      O1958   1.263       .  A
C1959      C1960   1.404       .  A
C1959      C1964   1.408       .  A
C1959      H1966   1.084       .  S
C1960      C1961   1.419       .  A
C1961      C1962   1.401       .  A
C1961      N1968   1.437       .  S
C1962      C1963   1.397       .  A
C1962      H1967   1.084       .  S
C1963      C1964   1.417       .  A
C1964      N1965   1.442       .  S
N1965      O1969   1.263       .  A
N1965      O1970   1.262       .  A
N1968      O1971   1.261       .  A
N1968      O1972   1.262       .  A
C1973      C1974   1.406       .  A
C1973      C1978   1.411       .  A
C1973      H1980   1.081       .  S
C1974      C1975   1.417       .  A
C1975      C1976   1.394       .  A
C1975      N1982   1.430       .  S
C1976      C1977   1.397       .  A
C1976      H1981   1.085       .  S
C1977      C1978   1.418       .  A
C1978      N1979   1.443       .  S
N1979      O1983   1.263       .  A
N1979      O1984   1.262       .  A
N1982      O1985   1.262       .  A
N1982      O1986   1.262       .  A
C1987      C1988   1.403       .  A
C1987      C1992   1.405       .  A
C1987      H1994   1.083       .  S
C1988      C1989   1.411       .  A
C1989      C1990   1.404       .  A
C1989      N1996   1.442       .  S
C1990      C1991   1.404       .  A
C1990      H1995   1.084       .  S
C1991      C1992   1.412       .  A
C1992      N1993   1.443       .  S
N1993      O1997   1.263       .  A
N1993      O1998   1.263       .  A
N1996      O1999   1.263       .  A
N1996      O2000   1.263       .  A
C2001      C2002   1.406   1_554  A
C2001      C2006   1.399       .  A
C2001      H2008   1.084   1_554  S
C2002      C2003   1.414       .  A
C2003      C2004   1.402   1_556  A
C2003      N2010   1.436       .  S
C2004      C2005   1.407       .  A
C2004      H2009   1.084       .  S
C2005      C2006   1.416       .  A
C2006      N2007   1.436       .  S
N2007      O2011   1.263       .  A
N2007      O2012   1.262       .  A
N2010      O2013   1.262       .  A
N2010      O2014   1.262       .  A
C2015      C2016   1.404       .  A
C2015      C2020   1.406       .  A
C2015      H2022   1.083       .  S
C2016      C2017   1.411       .  A
C2017      C2018   1.402       .  A
C2017      N2024   1.443       .  S
C2018      C2019   1.403       .  A
C2018      H2023   1.084       .  S
C2019      C2020   1.413       .  A
C2020      N2021   1.443       .  S
N2021      O2025   1.263       .  A
N2021      O2026   1.262       .  A
N2024      O2027   1.262       .  A
N2024      O2028   1.263       .  A
C2029      C2030   1.406       .  A
C2029      C2034   1.403       .  A
C2029      H2036   1.084       .  S
C2030      C2031   1.417       .  A
C2031      C2032   1.409       .  A
C2031      N2038   1.435       .  S
C2032      C2033   1.403       .  A
C2032      H2037   1.084       .  S
C2033      C2034   1.414       .  A
C2034      N2035   1.442       .  S
N2035      O2039   1.263       .  A
N2035      O2040   1.263       .  A
N2038      O2041   1.262       .  A
N2038      O2042   1.262       .  A
C2043      C2044   1.400       .  A
C2043      C2048   1.402       .  A
C2043      H2050   1.084       .  S
C2044      C2045   1.413       .  A
C2045      C2046   1.406       .  A
C2045      N2052   1.443       .  S
C2046      C2047   1.409       .  A
C2046      H2051   1.083       .  S
C2047      C2048   1.418       .  A
C2048      N2049   1.433       .  S
N2049      O2053   1.262       .  A
N2049      O2054   1.262       .  A
N2052      O2055   1.263       .  A
N2052      O2056   1.263       .  A
C2057      C2058   1.403       .  A
C2057      C2062   1.404       .  A
C2057      H2064   1.084       .  S
C2058      C2059   1.412       .  A
C2059      C2060   1.403       .  A
C2059      N2066   1.447       .  S
C2060      C2061   1.412       .  A
C2060      H2065   1.083       .  S
C2061      C2062   1.415       .  A
C2062      N2063   1.435       .  S
N2063      O2067   1.262       .  A
N2063      O2068   1.262       .  A
N2066      O2069   1.262       .  A
N2066      O2070   1.263       .  A
C2071      C2072   1.409       .  A
C2071      C2076   1.401       .  A
C2071      H2078   1.083       .  S
C2072      C2073   1.416       .  A
C2073      C2074   1.402       .  A
C2073      N2080   1.435       .  S
C2074      C2075   1.409       .  A
C2074      H2079   1.083       .  S
C2075      C2076   1.416       .  A
C2076      N2077   1.434       .  S
N2077      O2081   1.262       .  A
N2077      O2082   1.262       .  A
N2080      O2083   1.262       .  A
N2080      O2084   1.263       .  A
C2085      C2086   1.404       .  A
C2085      C2090   1.399       .  A
C2085      H2092   1.082       .  S
C2086      C2087   1.411       .  A
C2087      C2088   1.406       .  A
C2087      N2094   1.442       .  S
C2088      C2089   1.410   1_554  A
C2088      H2093   1.084   1_554  S
C2089      C2090   1.411   1_556  A
C2090      N2091   1.439   1_554  S
N2091      O2095   1.263       .  A
N2091      O2096   1.263       .  A
N2094      O2097   1.263       .  A
N2094      O2098   1.263       .  A
C2099      C2100   1.400       .  A
C2099      C2104   1.401       .  A
C2099      H2106   1.085       .  S
C2100      C2101   1.415       .  A
C2101      C2102   1.405       .  A
C2101      N2108   1.444       .  S
C2102      C2103   1.408       .  A
C2102      H2107   1.083       .  S
C2103      C2104   1.417       .  A
C2104      N2105   1.435       .  S
N2105      O2109   1.263       .  A
N2105      O2110   1.262       .  A
N2108      O2111   1.262       .  A
N2108      O2112   1.263       .  A
C2113      C2114   1.407       .  A
C2113      C2118   1.400       .  A
C2113      H2120   1.084       .  S
C2114      C2115   1.410       .  A
C2115      C2116   1.402       .  A
C2115      N2122   1.440       .  S
C2116      C2117   1.408       .  A
C2116      H2121   1.084       .  S
C2117      C2118   1.409       .  A
C2118      N2119   1.437       .  S
N2119      O2123   1.263       .  A
N2119      O2124   1.262       .  A
N2122      O2125   1.263       .  A
N2122      O2126   1.263       .  A
C2127      C2128   1.403       .  A
C2127      C2132   1.401       .  A
C2127      H2134   1.084       .  S
C2128      C2129   1.416       .  A
C2129      C2130   1.399       .  A
C2129      N2136   1.439       .  S
C2130      C2131   1.399       .  A
C2130      H2135   1.084       .  S
C2131      C2132   1.414       .  A
C2132      N2133   1.439       .  S
N2133      O2137   1.263       .  A
N2133      O2138   1.262       .  A
N2136      O2139   1.263       .  A
N2136      O2140   1.263       .  A
C2141      C2142   1.404       .  A
C2141      C2146   1.407       .  A
C2141      H2148   1.084       .  S
C2142      C2143   1.410       .  A
C2143      C2144   1.402       .  A
C2143      N2150   1.443       .  S
C2144      C2145   1.406       .  A
C2144      H2149   1.084       .  S
C2145      C2146   1.416       .  A
C2146      N2147   1.439       .  S
N2147      O2151   1.263       .  A
N2147      O2152   1.263       .  A
N2150      O2153   1.263       .  A
N2150      O2154   1.263       .  A
C2155      C2156   1.397       .  A
C2155      C2160   1.400       .  A
C2155      H2162   1.085       .  S
C2156      C2157   1.417       .  A
C2157      C2158   1.408       .  A
C2157      N2164   1.450       .  S
C2158      C2159   1.410       .  A
C2158      H2163   1.083       .  S
C2159      C2160   1.410       .  A
C2160      N2161   1.427       .  S
N2161      O2165   1.263       .  A
N2161      O2166   1.262       .  A
N2164      O2167   1.262       .  A
N2164      O2168   1.263       .  A
C2169      C2170   1.409       .  A
C2169      C2174   1.400       .  A
C2169      H2176   1.083       .  S
C2170      C2171   1.413       .  A
C2171      C2172   1.398       .  A
C2171      N2178   1.430       .  S
C2172      C2173   1.408       .  A
C2172      H2177   1.084       .  S
C2173      C2174   1.415       .  A
C2174      N2175   1.435       .  S
N2175      O2179   1.262       .  A
N2175      O2180   1.262       .  A
N2178      O2181   1.262       .  A
N2178      O2182   1.262       .  A
C2183      C2184   1.399       .  A
C2183      C2188   1.400       .  A
C2183      H2190   1.084       .  S
C2184      C2185   1.418       .  A
C2185      C2186   1.398       .  A
C2185      N2192   1.437       .  S
C2186      C2187   1.399       .  A
C2186      H2191   1.084       .  S
C2187      C2188   1.419       .  A
C2188      N2189   1.437       .  S
N2189      O2193   1.263       .  A
N2189      O2194   1.262       .  A
N2192      O2195   1.262       .  A
N2192      O2196   1.263       .  A
C2197      C2198   1.404       .  A
C2197      C2202   1.401       .  A
C2197      H2204   1.084       .  S
C2198      C2199   1.417       .  A
C2199      C2200   1.408       .  A
C2199      N2206   1.438       .  S
C2200      C2201   1.404       .  A
C2200      H2205   1.084       .  S
C2201      C2202   1.414       .  A
C2202      N2203   1.437       .  S
N2203      O2207   1.263       .  A
N2203      O2208   1.262       .  A
N2206      O2209   1.263       .  A
N2206      O2210   1.263       .  A
C2211      C2212   1.404       .  A
C2211      C2216   1.410       .  A
C2211      H2218   1.084       .  S
C2212      C2213   1.413       .  A
C2213      C2214   1.395       .  A
C2213      N2220   1.431       .  S
C2214      C2215   1.396       .  A
C2214      H2219   1.085       .  S
C2215      C2216   1.418       .  A
C2216      N2217   1.443       .  S
N2217      O2221   1.263       .  A
N2217      O2222   1.262       .  A
N2220      O2223   1.262       .  A
N2220      O2224   1.262       .  A
C2225      C2226   1.408       .  A
C2225      C2230   1.412       .  A
C2225      H2232   1.082       .  S
C2226      C2227   1.406       .  A
C2227      C2228   1.400       .  A
C2227      N2234   1.430       .  S
C2228      C2229   1.411       .  A
C2228      H2233   1.084       .  S
C2229      C2230   1.427       .  A
C2230      N2231   1.451       .  S
N2231      O2235   1.263       .  A
N2231      O2236   1.259       .  A
N2234      O2237   1.262       .  A
N2234      O2238   1.262   1_556  A
C2239      C2240   1.406       .  A
C2239      C2244   1.407       .  A
C2239      H2246   1.081       .  S
C2240      C2241   1.416       .  A
C2241      C2242   1.409       .  A
C2241      N2248   1.441       .  S
C2242      C2243   1.407       .  A
C2242      H2247   1.084       .  S
C2243      C2244   1.415       .  A
C2244      N2245   1.440       .  S
N2245      O2249   1.263       .  A
N2245      O2250   1.263       .  A
N2248      O2251   1.263       .  A
N2248      O2252   1.263       .  A
C2253      C2254   1.396       .  A
C2253      C2258   1.396       .  A
C2253      H2260   1.085       .  S
C2254      C2255   1.426       .  A
C2255      C2256   1.409       .  A
C2255      N2262   1.441       .  S
C2256      C2257   1.399       .  A
C2256      H2261   1.084       .  S
C2257      C2258   1.413       .  A
C2258      N2259   1.428       .  S
N2259      O2263   1.262       .  A
N2259      O2264   1.262       .  A
N2262      O2265   1.261       .  A
N2262      O2266   1.263       .  A
C2267      C2268   1.400       .  A
C2267      C2272   1.411       .  A
C2267      H2274   1.083       .  S
C2268      C2269   1.407       .  A
C2269      C2270   1.395       .  A
C2269      N2276   1.432       .  S
C2270      C2271   1.402       .  A
C2270      H2275   1.085       .  S
C2271      C2272   1.432       .  A
C2272      N2273   1.452       .  S
N2273      O2277   1.263       .  A
N2273      O2278   1.259       .  A
N2276      O2279   1.262       .  A
N2276      O2280   1.262       .  A
C2281      C2282   1.401       .  A
C2281      C2286   1.412       .  A
C2281      H2288   1.083       .  S
C2282      C2283   1.412       .  A
C2283      C2284   1.399       .  A
C2283      N2290   1.434       .  S
C2284      C2285   1.397       .  A
C2284      H2289   1.084       .  S
C2285      C2286   1.422       .  A
C2286      N2287   1.444       .  S
N2287      O2291   1.263       .  A
N2287      O2292   1.261       .  A
N2290      O2293   1.262       .  A
N2290      O2294   1.263       .  A
C2295      C2296   1.400       .  A
C2295      C2300   1.400       .  A
C2295      H2302   1.073       .  S
C2296      C2297   1.413       .  A
C2297      C2298   1.410       .  A
C2297      N2304   1.444       .  S
C2298      C2299   1.407       .  A
C2298      H2303   1.083       .  S
C2299      C2300   1.403       .  A
C2300      N2301   1.434       .  S
N2301      O2305   1.262       .  A
N2301      O2306   1.262       .  A
N2304      O2307   1.263       .  A
N2304      O2308   1.263       .  A
C2309      C2310   1.411       .  A
C2309      C2314   1.405       .  A
C2309      H2316   1.083       .  S
C2310      C2311   1.412       .  A
C2311      C2312   1.404       .  A
C2311      N2318   1.439       .  S
C2312      C2313   1.408       .  A
C2312      H2317   1.084       .  S
C2313      C2314   1.411       .  A
C2314      N2315   1.441       .  S
N2315      O2319   1.263       .  A
N2315      O2320   1.263       .  A
N2318      O2321   1.263       .  A
N2318      O2322   1.263       .  A
C2323      C2324   1.393       .  A
C2323      C2328   1.400       .  A
C2323      H2330   1.085   1_554  S
C2324      C2325   1.423       .  A
C2325      C2326   1.411       .  A
C2325      N2332   1.443       .  S
C2326      C2327   1.402       .  A
C2326      H2331   1.084       .  S
C2327      C2328   1.417       .  A
C2328      N2329   1.431   1_554  S
N2329      O2333   1.262       .  A
N2329      O2334   1.262       .  A
N2332      O2335   1.263       .  A
N2332      O2336   1.261       .  A
C2337      C2338   1.407       .  A
C2337      C2342   1.407       .  A
C2337      H2344   1.084       .  S
C2338      C2339   1.412       .  A
C2339      C2340   1.406       .  A
C2339      N2346   1.443       .  S
C2340      C2341   1.406       .  A
C2340      H2345   1.084       .  S
C2341      C2342   1.412       .  A
C2342      N2343   1.443       .  S
N2343      O2347   1.263       .  A
N2343      O2348   1.263       .  A
N2346      O2349   1.263       .  A
N2346      O2350   1.263       .  A
C2351      C2352   1.402       .  A
C2351      C2356   1.404       .  A
C2351      H2358   1.084       .  S
C2352      C2353   1.416       .  A
C2353      C2354   1.401       .  A
C2353      N2360   1.439       .  S
C2354      C2355   1.401       .  A
C2354      H2359   1.084       .  S
C2355      C2356   1.417       .  A
C2356      N2357   1.438       .  S
N2357      O2361   1.263       .  A
N2357      O2362   1.262       .  A
N2360      O2363   1.263       .  A
N2360      O2364   1.263       .  A
C2365      C2366   1.399       .  A
C2365      C2370   1.404       .  A
C2365      H2372   1.084       .  S
C2366      C2367   1.422       .  A
C2367      C2368   1.405       .  A
C2367      N2374   1.439       .  S
C2368      C2369   1.396       .  A
C2368      H2373   1.084       .  S
C2369      C2370   1.418       .  A
C2370      N2371   1.437       .  S
N2371      O2375   1.263       .  A
N2371      O2376   1.261       .  A
N2374      O2377   1.261       .  A
N2374      O2378   1.263       .  A
C2379      C2380   1.406       .  A
C2379      C2384   1.404       .  A
C2379      H2386   1.083       .  S
C2380      C2381   1.421       .  A
C2381      C2382   1.401       .  A
C2381      N2388   1.436       .  S
C2382      C2383   1.401       .  A
C2382      H2387   1.084       .  S
C2383      C2384   1.418       .  A
C2384      N2385   1.439       .  S
N2385      O2389   1.263       .  A
N2385      O2390   1.263       .  A
N2388      O2391   1.263       .  A
N2388      O2392   1.263       .  A
C2393      C2394   1.403       .  A
C2393      C2398   1.403       .  A
C2393      H2400   1.084       .  S
C2394      C2395   1.418       .  A
C2395      C2396   1.409       .  A
C2395      N2402   1.446       .  S
C2396      C2397   1.406       .  A
C2396      H2401   1.084       .  S
C2397      C2398   1.413       .  A
C2398      N2399   1.440       .  S
N2399      O2403   1.263       .  A
N2399      O2404   1.263       .  A
N2402      O2405   1.263       .  A
N2402      O2406   1.263       .  A
C2407      C2408   1.406       .  A
C2407      C2412   1.404       .  A
C2407      H2414   1.084       .  S
C2408      C2409   1.416       .  A
C2409      C2410   1.402       .  A
C2409      N2416   1.432       .  S
C2410      C2411   1.400       .  A
C2410      H2415   1.084       .  S
C2411      C2412   1.414       .  A
C2412      N2413   1.442       .  S
N2413      O2417   1.263       .  A
N2413      O2418   1.263       .  A
N2416      O2419   1.262   1_554  A
N2416      O2420   1.262       .  A
C2421      C2422   1.403       .  A
C2421      C2426   1.401       .  A
C2421      H2428   1.084       .  S
C2422      C2423   1.414       .  A
C2423      C2424   1.405       .  A
C2423      N2430   1.438       .  S
C2424      C2425   1.405       .  A
C2424      H2429   1.084       .  S
C2425      C2426   1.414       .  A
C2426      N2427   1.439       .  S
N2427      O2431   1.263       .  A
N2427      O2432   1.263       .  A
N2430      O2433   1.262       .  A
N2430      O2434   1.263       .  A
C2435      C2436   1.397       .  A
C2435      C2440   1.398       .  A
C2435      H2442   1.085       .  S
C2436      C2437   1.418       .  A
C2437      C2438   1.410       .  A
C2437      N2444   1.443       .  S
C2438      C2439   1.405       .  A
C2438      H2443   1.084       .  S
C2439      C2440   1.425       .  A
C2440      N2441   1.446       .  S
N2441      O2445   1.263       .  A
N2441      O2446   1.259       .  A
N2444      O2447   1.261       .  A
N2444      O2448   1.263   1_554  A
C2449      C2450   1.411       .  A
C2449      C2454   1.402       .  A
C2449      H2456   1.083       .  S
C2450      C2451   1.413       .  A
C2451      C2452   1.409       .  A
C2451      N2458   1.439       .  S
C2452      C2453   1.412       .  A
C2452      H2457   1.083       .  S
C2453      C2454   1.412       .  A
C2454      N2455   1.439       .  S
N2455      O2459   1.263       .  A
N2455      O2460   1.263       .  A
N2458      O2461   1.263       .  A
N2458      O2462   1.263       .  A
C2463      C2464   1.398       .  A
C2463      C2468   1.404       .  A
C2463      H2470   1.084       .  S
C2464      C2465   1.421       .  A
C2465      C2466   1.405       .  A
C2465      N2472   1.437       .  S
C2466      C2467   1.397       .  A
C2466      H2471   1.084       .  S
C2467      C2468   1.416       .  A
C2468      N2469   1.438       .  S
N2469      O2473   1.263       .  A
N2469      O2474   1.262       .  A
N2472      O2475   1.259       .  A
N2472      O2476   1.263       .  A
C2477      C2478   1.406       .  A
C2477      C2482   1.406       .  A
C2477      H2484   1.083       .  S
C2478      C2479   1.418       .  A
C2479      C2480   1.403       .  A
C2479      N2486   1.436       .  S
C2480      C2481   1.400       .  A
C2480      H2485   1.084       .  S
C2481      C2482   1.418       .  A
C2482      N2483   1.445       .  S
N2483      O2487   1.263       .  A
N2483      O2488   1.262       .  A
N2486      O2489   1.263       .  A
N2486      O2490   1.263       .  A
C2491      C2492   1.404       .  A
C2491      C2496   1.404       .  A
C2491      H2498   1.084       .  S
C2492      C2493   1.414       .  A
C2493      C2494   1.404       .  A
C2493      N2500   1.444       .  S
C2494      C2495   1.404       .  A
C2494      H2499   1.085       .  S
C2495      C2496   1.412       .  A
C2496      N2497   1.444       .  S
N2497      O2501   1.263       .  A
N2497      O2502   1.262       .  A
N2500      O2503   1.262       .  A
N2500      O2504   1.263       .  A
C2505      C2506   1.408       .  A
C2505      C2510   1.402   1_556  A
C2505      H2512   1.084       .  S
C2506      C2507   1.418       .  A
C2507      C2508   1.405   1_556  A
C2507      N2514   1.436       .  S
C2508      C2509   1.408       .  A
C2508      H2513   1.083       .  S
C2509      C2510   1.416       .  A
C2510      N2511   1.436       .  S
N2511      O2515   1.262       .  A
N2511      O2516   1.263       .  A
N2514      O2517   1.263       .  A
N2514      O2518   1.263   1_556  A
C2519      C2520   1.405       .  A
C2519      C2524   1.397       .  A
C2519      H2526   1.084       .  S
C2520      C2521   1.418       .  A
C2521      C2522   1.410       .  A
C2521      N2528   1.439       .  S
C2522      C2523   1.403       .  A
C2522      H2527   1.084       .  S
C2523      C2524   1.410       .  A
C2524      N2525   1.434       .  S
N2525      O2529   1.262       .  A
N2525      O2530   1.262       .  A
N2528      O2531   1.262       .  A
N2528      O2532   1.262       .  A
C2533      C2534   1.409       .  A
C2533      C2538   1.409       .  A
C2533      H2540   1.083       .  S
C2534      C2535   1.415       .  A
C2535      C2536   1.406       .  A
C2535      N2542   1.439       .  S
C2536      C2537   1.405       .  A
C2536      H2541   1.082       .  S
C2537      C2538   1.416       .  A
C2538      N2539   1.441       .  S
N2539      O2543   1.263       .  A
N2539      O2544   1.263       .  A
N2542      O2545   1.263       .  A
N2542      O2546   1.263       .  A
C2547      C2548   1.407       .  A
C2547      C2552   1.398       .  A
C2547      H2554   1.084       .  S
C2548      C2549   1.417       .  A
C2549      C2550   1.407       .  A
C2549      N2556   1.436       .  S
C2550      C2551   1.404       .  A
C2550      H2555   1.084       .  S
C2551      C2552   1.411       .  A
C2552      N2553   1.437       .  S
N2553      O2557   1.262       .  A
N2553      O2558   1.262       .  A
N2556      O2559   1.262       .  A
N2556      O2560   1.263       .  A
C2561      C2562   1.405       .  A
C2561      C2566   1.400       .  A
C2561      H2568   1.084       .  S
C2562      C2563   1.413       .  A
C2563      C2564   1.396       .  A
C2563      N2570   1.433       .  S
C2564      C2565   1.407       .  A
C2564      H2569   1.084       .  S
C2565      C2566   1.417       .  A
C2566      N2567   1.434       .  S
N2567      O2571   1.262       .  A
N2567      O2572   1.262       .  A
N2570      O2573   1.262       .  A
N2570      O2574   1.262       .  A
C2575      C2576   1.401       .  A
C2575      C2580   1.400       .  A
C2575      H2582   1.084       .  S
C2576      C2577   1.421       .  A
C2577      C2578   1.400       .  A
C2577      N2584   1.436       .  S
C2578      C2579   1.400       .  A
C2578      H2583   1.084       .  S
C2579      C2580   1.422       .  A
C2580      N2581   1.437       .  S
N2581      O2585   1.263       .  A
N2581      O2586   1.262       .  A
N2584      O2587   1.263       .  A
N2584      O2588   1.263       .  A
C2589      C2590   1.407       .  A
C2589      C2594   1.403       .  A
C2589      H2596   1.084       .  S
C2590      C2591   1.418       .  A
C2591      C2592   1.408       .  A
C2591      N2598   1.437       .  S
C2592      C2593   1.403       .  A
C2592      H2597   1.084       .  S
C2593      C2594   1.413       .  A
C2594      N2595   1.440       .  S
N2595      O2599   1.263       .  A
N2595      O2600   1.262       .  A
N2598      O2601   1.263       .  A
N2598      O2602   1.263       .  A
C2603      C2604   1.400       .  A
C2603      C2608   1.405       .  A
C2603      H2610   1.084       .  S
C2604      C2605   1.415       .  A
C2605      C2606   1.403       .  A
C2605      N2612   1.438       .  S
C2606      C2607   1.399       .  A
C2606      H2611   1.084       .  S
C2607      C2608   1.418       .  A
C2608      N2609   1.440       .  S
N2609      O2613   1.263       .  A
N2609      O2614   1.261       .  A
N2612      O2615   1.260       .  A
N2612      O2616   1.263       .  A
C2617      C2618   1.396       .  A
C2617      C2622   1.399       .  A
C2617      H2624   1.085       .  S
C2618      C2619   1.422       .  A
C2619      C2620   1.410       .  A
C2619      N2626   1.450       .  S
C2620      C2621   1.404       .  A
C2620      H2625   1.083       .  S
C2621      C2622   1.421       .  A
C2622      N2623   1.434       .  S
N2623      O2627   1.263       .  A
N2623      O2628   1.262       .  A
N2626      O2629   1.262       .  A
N2626      O2630   1.263       .  A
C2631      C2632   1.402       .  A
C2631      C2636   1.400   1_554  A
C2631      H2638   1.084       .  S
C2632      C2633   1.412       .  A
C2633      C2634   1.398   1_554  A
C2633      N2640   1.433       .  S
C2634      C2635   1.408       .  A
C2634      H2639   1.084       .  S
C2635      C2636   1.420       .  A
C2636      N2637   1.434       .  S
N2637      O2641   1.263       .  A
N2637      O2642   1.260       .  A
N2640      O2643   1.262       .  A
N2640      O2644   1.262       .  A
C2645      C2646   1.401       .  A
C2645      C2650   1.396       .  A
C2645      H2652   1.084       .  S
C2646      C2647   1.418       .  A
C2647      C2648   1.400       .  A
C2647      N2654   1.436       .  S
C2648      C2649   1.404       .  A
C2648      H2653   1.083       .  S
C2649      C2650   1.419       .  A
C2650      N2651   1.430       .  S
N2651      O2655   1.262       .  A
N2651      O2656   1.262       .  A
N2654      O2657   1.263       .  A
N2654      O2658   1.263       .  A
C2659      C2660   1.398       .  A
C2659      C2664   1.402       .  A
C2659      H2666   1.084       .  S
C2660      C2661   1.415       .  A
C2661      C2662   1.406       .  A
C2661      N2668   1.441       .  S
C2662      C2663   1.401       .  A
C2662      H2667   1.084       .  S
C2663      C2664   1.414       .  A
C2664      N2665   1.438       .  S
N2665      O2669   1.262       .  A
N2665      O2670   1.263       .  A
N2668      O2671   1.262       .  A
N2668      O2672   1.263       .  A
C2673      C2674   1.399       .  A
C2673      C2678   1.405       .  A
C2673      H2680   1.084       .  S
C2674      C2675   1.413       .  A
C2675      C2676   1.399       .  A
C2675      N2682   1.443       .  S
C2676      C2677   1.402       .  A
C2676      H2681   1.084       .  S
C2677      C2678   1.418       .  A
C2678      N2679   1.436       .  S
N2679      O2683   1.263       .  A
N2679      O2684   1.260       .  A
N2682      O2685   1.263       .  A
N2682      O2686   1.263       .  A
C2687      C2688   1.408       .  A
C2687      C2692   1.406       .  A
C2687      H2694   1.083       .  S
C2688      C2689   1.418       .  A
C2689      C2690   1.398       .  A
C2689      N2696   1.433       .  S
C2690      C2691   1.398       .  A
C2690      H2695   1.085       .  S
C2691      C2692   1.416       .  A
C2692      N2693   1.447       .  S
N2693      O2697   1.263       .  A
N2693      O2698   1.262       .  A
N2696      O2699   1.262       .  A
N2696      O2700   1.262       .  A
C2701      C2702   1.405       .  A
C2701      C2706   1.398       .  A
C2701      H2708   1.084       .  S
C2702      C2703   1.419       .  A
C2703      C2704   1.412       .  A
C2703      N2710   1.438       .  S
C2704      C2705   1.405       .  A
C2704      H2709   1.084       .  S
C2705      C2706   1.410       .  A
C2706      N2707   1.432       .  S
N2707      O2711   1.262       .  A
N2707      O2712   1.262       .  A
N2710      O2713   1.262       .  A
N2710      O2714   1.263       .  A
C2715      C2716   1.403   1_565  A
C2715      C2720   1.399       .  A
C2715      H2722   1.083       .  S
C2716      C2717   1.422       .  A
C2717      C2718   1.397       .  A
C2717      N2724   1.432       .  S
C2718      C2719   1.400   1_545  A
C2718      H2723   1.084       .  S
C2719      C2720   1.422       .  A
C2720      N2721   1.436       .  S
N2721      O2725   1.262       .  A
N2721      O2726   1.262       .  A
N2724      O2727   1.263       .  A
N2724      O2728   1.262       .  A
C2729      C2730   1.408   1_565  A
C2729      C2734   1.400       .  A
C2729      H2736   1.083       .  S
C2730      C2731   1.414       .  A
C2731      C2732   1.402       .  A
C2731      N2738   1.436       .  S
C2732      C2733   1.411       .  A
C2732      H2737   1.083       .  S
C2733      C2734   1.415   1_545  A
C2734      N2735   1.435       .  S
N2735      O2739   1.263       .  A
N2735      O2740   1.262       .  A
N2738      O2741   1.263       .  A
N2738      O2742   1.263       .  A
C2743      C2744   1.405       .  A
C2743      C2748   1.406       .  A
C2743      H2750   1.084       .  S
C2744      C2745   1.415       .  A
C2745      C2746   1.402       .  A
C2745      N2752   1.432       .  S
C2746      C2747   1.401       .  A
C2746      H2751   1.084       .  S
C2747      C2748   1.415       .  A
C2748      N2749   1.442       .  S
N2749      O2753   1.263       .  A
N2749      O2754   1.263       .  A
N2752      O2755   1.262       .  A
N2752      O2756   1.262       .  A
C2757      C2758   1.406   1_565  A
C2757      C2762   1.405       .  A
C2757      H2764   1.079       .  S
C2758      C2759   1.415       .  A
C2759      C2760   1.407       .  A
C2759      N2766   1.439       .  S
C2760      C2761   1.408   1_545  A
C2760      H2765   1.084       .  S
C2761      C2762   1.414       .  A
C2762      N2763   1.440       .  S
N2763      O2767   1.263       .  A
N2763      O2768   1.263       .  A
N2766      O2769   1.263       .  A
N2766      O2770   1.263       .  A
C2771      C2772   1.403       .  A
C2771      C2776   1.407       .  A
C2771      H2778   1.084       .  S
C2772      C2773   1.414       .  A
C2773      C2774   1.403       .  A
C2773      N2780   1.441       .  S
C2774      C2775   1.405       .  A
C2774      H2779   1.084       .  S
C2775      C2776   1.416       .  A
C2776      N2777   1.435       .  S
N2777      O2781   1.262       .  A
N2777      O2782   1.262       .  A
N2780      O2783   1.263       .  A
N2780      O2784   1.263       .  A
C2785      C2786   1.402       .  A
C2785      C2790   1.403       .  A
C2785      H2792   1.084       .  S
C2786      C2787   1.416       .  A
C2787      C2788   1.406       .  A
C2787      N2794   1.441       .  S
C2788      C2789   1.405       .  A
C2788      H2793   1.084       .  S
C2789      C2790   1.416       .  A
C2790      N2791   1.438       .  S
N2791      O2795   1.263       .  A
N2791      O2796   1.263       .  A
N2794      O2797   1.261       .  A
N2794      O2798   1.263       .  A
C2799      C2800   1.403   1_545  A
C2799      C2804   1.408       .  A
C2799      H2806   1.084       .  S
C2800      C2801   1.415       .  A
C2801      C2802   1.400       .  A
C2801      N2808   1.434       .  S
C2802      C2803   1.396   1_565  A
C2802      H2807   1.084       .  S
C2803      C2804   1.417       .  A
C2804      N2805   1.441       .  S
N2805      O2809   1.263       .  A
N2805      O2810   1.262       .  A
N2808      O2811   1.261       .  A
N2808      O2812   1.263       .  A
C2813      C2814   1.403       .  A
C2813      C2818   1.402       .  A
C2813      H2820   1.084       .  S
C2814      C2815   1.420   1_545  A
C2815      C2816   1.404       .  A
C2815      N2822   1.434       .  S
C2816      C2817   1.402       .  A
C2816      H2821   1.084       .  S
C2817      C2818   1.416   1_565  A
C2818      N2819   1.430       .  S
N2819      O2823   1.262       .  A
N2819      O2824   1.261       .  A
N2822      O2825   1.261       .  A
N2822      O2826   1.262       .  A
C2827      C2828   1.398       .  A
C2827      C2832   1.396       .  A
C2827      H2834   1.085       .  S
C2828      C2829   1.419       .  A
C2829      C2830   1.411       .  A
C2829      N2836   1.442       .  S
C2830      C2831   1.404       .  A
C2830      H2835   1.083       .  S
C2831      C2832   1.417       .  A
C2832      N2833   1.436       .  S
N2833      O2837   1.263       .  A
N2833      O2838   1.263       .  A
N2836      O2839   1.262       .  A
N2836      O2840   1.263       .  A
C2841      C2842   1.406   1_565  A
C2841      C2846   1.399   1_556  A
C2841      H2848   1.084       .  S
C2842      C2843   1.409       .  A
C2843      C2844   1.400   1_556  A
C2843      N2850   1.435       .  S
C2844      C2845   1.408       .  A
C2844      H2849   1.084       .  S
C2845      C2846   1.409   1_545  A
C2846      N2847   1.433       .  S
N2847      O2851   1.262       .  A
N2847      O2852   1.262       .  A
N2850      O2853   1.262       .  A
N2850      O2854   1.262       .  A
C2855      C2856   1.408   1_565  A
C2855      C2860   1.400       .  A
C2855      H2862   1.083       .  S
C2856      C2857   1.416       .  A
C2857      C2858   1.400       .  A
C2857      N2864   1.435       .  S
C2858      C2859   1.406       .  A
C2858      H2863   1.084       .  S
C2859      C2860   1.415   1_545  A
C2860      N2861   1.435       .  S
N2861      O2865   1.263       .  A
N2861      O2866   1.261       .  A
N2864      O2867   1.263       .  A
N2864      O2868   1.262       .  A
C2869      C2870   1.409       .  A
C2869      C2874   1.406       .  A
C2869      H2876   1.083       .  S
C2870      C2871   1.419       .  A
C2871      C2872   1.402       .  A
C2871      N2878   1.433       .  S
C2872      C2873   1.399       .  A
C2872      H2877   1.084       .  S
C2873      C2874   1.414       .  A
C2874      N2875   1.444       .  S
N2875      O2879   1.263       .  A
N2875      O2880   1.262       .  A
N2878      O2881   1.262       .  A
N2878      O2882   1.262       .  A
C2883      C2884   1.398       .  A
C2883      C2888   1.403       .  A
C2883      H2890   1.084       .  S
C2884      C2885   1.414       .  A
C2885      C2886   1.405       .  A
C2885      N2892   1.438       .  S
C2886      C2887   1.400       .  A
C2886      H2891   1.084       .  S
C2887      C2888   1.417       .  A
C2888      N2889   1.437   1_545  S
N2889      O2893   1.263   1_565  A
N2889      O2894   1.261       .  A
N2892      O2895   1.262       .  A
N2892      O2896   1.263   1_545  A
C2897      C2898   1.400       .  A
C2897      C2902   1.408       .  A
C2897      H2904   1.084       .  S
C2898      C2899   1.413       .  A
C2899      C2900   1.400   1_565  A
C2899      N2906   1.430   1_565  S
C2900      C2901   1.396   1_545  A
C2900      H2905   1.084       .  S
C2901      C2902   1.419       .  A
C2902      N2903   1.440       .  S
N2903      O2907   1.263       .  A
N2903      O2908   1.262       .  A
N2906      O2909   1.261   1_545  A
N2906      O2910   1.262       .  A
C2911      C2912   1.405       .  A
C2911      C2916   1.406   1_545  A
C2911      H2918   1.084       .  S
C2912      C2913   1.413   1_545  A
C2913      C2914   1.406       .  A
C2913      N2920   1.445       .  S
C2914      C2915   1.405   1_554  A
C2914      H2919   1.084   1_554  S
C2915      C2916   1.413   1_556  A
C2916      N2917   1.444   1_554  S
N2917      O2921   1.263   1_566  A
N2917      O2922   1.263       .  A
N2920      O2923   1.262   1_565  A
N2920      O2924   1.263       .  A
C2925      C2926   1.393       .  A
C2925      C2930   1.399   1_455  A
C2925      H2932   1.084       .  S
C2926      C2927   1.416   1_545  A
C2927      C2928   1.407   1_455  A
C2927      N2934   1.428       .  S
C2928      C2929   1.401       .  A
C2928      H2933   1.084       .  S
C2929      C2930   1.413   1_565  A
C2930      N2931   1.424       .  S
N2931      O2935   1.262       .  A
N2931      O2936   1.261   1_545  A
N2934      O2937   1.262       .  A
N2934      O2938   1.262       .  A
C2939      C2940   1.404       .  A
C2939      C2944   1.407       .  A
C2939      H2946   1.084       .  S
C2940      C2941   1.409   1_565  A
C2941      C2942   1.398       .  A
C2941      N2948   1.442       .  S
C2942      C2943   1.407       .  A
C2942      H2947   1.084       .  S
C2943      C2944   1.416   1_545  A
C2944      N2945   1.437       .  S
N2945      O2949   1.263       .  A
N2945      O2950   1.262       .  A
N2948      O2951   1.263       .  A
N2948      O2952   1.263       .  A
C2953      C2954   1.403   1_565  A
C2953      C2958   1.403   1_655  A
C2953      H2960   1.084       .  S
C2954      C2955   1.424       .  A
C2955      C2956   1.405   1_654  A
C2955      N2962   1.438   1_554  S
C2956      C2957   1.402       .  A
C2956      H2961   1.084       .  S
C2957      C2958   1.417   1_546  A
C2958      N2959   1.434       .  S
N2959      O2963   1.262       .  A
N2959      O2964   1.260       .  A
N2962      O2965   1.261       .  A
N2962      O2966   1.263       .  A
C2967      C2968   1.400       .  A
C2967      C2972   1.404       .  A
C2967      H2974   1.084       .  S
C2968      C2969   1.422       .  A
C2969      C2970   1.405       .  A
C2969      N2976   1.439       .  S
C2970      C2971   1.398       .  A
C2970      H2975   1.084       .  S
C2971      C2972   1.416       .  A
C2972      N2973   1.437       .  S
N2973      O2977   1.263       .  A
N2973      O2978   1.261   1_565  A
N2976      O2979   1.261       .  A
N2976      O2980   1.263   1_565  A
C2981      C2982   1.404       .  A
C2981      C2986   1.405       .  A
C2981      H2988   1.082       .  S
C2982      C2983   1.412   1_545  A
C2983      C2984   1.406       .  A
C2983      N2990   1.440       .  S
C2984      C2985   1.408   1_565  A
C2984      H2989   1.081       .  S
C2985      C2986   1.416       .  A
C2986      N2987   1.438       .  S
N2987      O2991   1.263       .  A
N2987      O2992   1.263       .  A
N2990      O2993   1.263       .  A
N2990      O2994   1.262       .  A
C2995      C2996   1.398       .  A
C2995      C3000   1.388       .  A
C2995      H3002   1.085       .  S
C2996      C2997   1.419   1_545  A
C2997      C2998   1.416       .  A
C2997      N3004   1.437       .  S
C2998      C2999   1.410   1_565  A
C2998      H3003   1.083       .  S
C2999      C3000   1.421       .  A
C3000      N3001   1.431       .  S
N3001      O3005   1.262       .  A
N3001      O3006   1.262       .  A
N3004      O3007   1.262       .  A
N3004      O3008   1.263       .  A
C3009      C3010   1.409       .  A
C3009      C3014   1.405       .  A
C3009      H3016   1.083       .  S
C3010      C3011   1.418       .  A
C3011      C3012   1.402       .  A
C3011      N3018   1.435       .  S
C3012      C3013   1.400       .  A
C3012      H3017   1.084       .  S
C3013      C3014   1.414       .  A
C3014      N3015   1.444       .  S
N3015      O3019   1.263       .  A
N3015      O3020   1.262       .  A
N3018      O3021   1.263       .  A
N3018      O3022   1.262       .  A
C3023      C3024   1.395       .  A
C3023      C3028   1.400       .  A
C3023      H3030   1.084       .  S
C3024      C3025   1.416       .  A
C3025      C3026   1.403       .  A
C3025      N3032   1.435       .  S
C3026      C3027   1.397       .  A
C3026      H3031   1.084       .  S
C3027      C3028   1.412       .  A
C3028      N3029   1.430       .  S
N3029      O3033   1.262       .  A
N3029      O3034   1.262       .  A
N3032      O3035   1.261       .  A
N3032      O3036   1.263       .  A
C3037      C3038   1.407       .  A
C3037      C3042   1.398       .  A
C3037      H3044   1.084       .  S
C3038      C3039   1.413       .  A
C3039      C3040   1.399       .  A
C3039      N3046   1.434       .  S
C3040      C3041   1.410       .  A
C3040      H3045   1.083       .  S
C3041      C3042   1.413       .  A
C3042      N3043   1.431       .  S
N3043      O3047   1.262       .  A
N3043      O3048   1.262       .  A
N3046      O3049   1.262       .  A
N3046      O3050   1.262       .  A
C3051      C3052   1.407       .  A
C3051      C3056   1.403       .  A
C3051      H3058   1.081       .  S
C3052      C3053   1.418       .  A
C3053      C3054   1.400       .  A
C3053      N3060   1.435       .  S
C3054      C3055   1.398       .  A
C3054      H3059   1.084       .  S
C3055      C3056   1.413       .  A
C3056      N3057   1.444       .  S
N3057      O3061   1.263       .  A
N3057      O3062   1.262       .  A
N3060      O3063   1.263       .  A
N3060      O3064   1.263       .  A
C3065      C3066   1.398   1_455  A
C3065      C3070   1.406       .  A
C3065      H3072   1.084   1_455  S
C3066      C3067   1.421       .  A
C3067      C3068   1.406   1_655  A
C3067      N3074   1.435       .  S
C3068      C3069   1.395       .  A
C3068      H3073   1.084       .  S
C3069      C3070   1.416       .  A
C3070      N3071   1.430       .  S
N3071      O3075   1.263       .  A
N3071      O3076   1.261       .  A
N3074      O3077   1.261       .  A
N3074      O3078   1.263       .  A
C3079      C3080   1.401       .  A
C3079      C3084   1.397       .  A
C3079      H3086   1.085       .  S
C3080      C3081   1.417       .  A
C3081      C3082   1.410       .  A
C3081      N3088   1.440       .  S
C3082      C3083   1.405       .  A
C3082      H3087   1.084       .  S
C3083      C3084   1.412       .  A
C3084      N3085   1.432       .  S
N3085      O3089   1.262       .  A
N3085      O3090   1.262       .  A
N3088      O3091   1.263       .  A
N3088      O3092   1.263       .  A
C3093      C3094   1.400       .  A
C3093      C3098   1.389       .  A
C3093      H3100   1.085       .  S
C3094      C3095   1.420       .  A
C3095      C3096   1.415       .  A
C3095      N3102   1.438       .  S
C3096      C3097   1.411       .  A
C3096      H3101   1.083       .  S
C3097      C3098   1.421       .  A
C3098      N3099   1.433       .  S
N3099      O3103   1.262       .  A
N3099      O3104   1.262       .  A
N3102      O3105   1.262       .  A
N3102      O3106   1.263       .  A
C3107      C3108   1.409       .  A
C3107      C3112   1.407   1_455  A
C3107      H3114   1.083       .  S
C3108      C3109   1.417       .  A
C3109      C3110   1.403   1_455  A
C3109      N3116   1.439       .  S
C3110      C3111   1.406       .  A
C3110      H3115   1.084       .  S
C3111      C3112   1.415       .  A
C3112      N3113   1.440       .  S
N3113      O3117   1.263   1_655  A
N3113      O3118   1.263       .  A
N3116      O3119   1.263       .  A
N3116      O3120   1.263   1_455  A
C3121      C3122   1.398       .  A
C3121      C3126   1.405       .  A
C3121      H3128   1.084       .  S
C3122      C3123   1.418       .  A
C3123      C3124   1.403       .  A
C3123      N3130   1.434       .  S
C3124      C3125   1.395       .  A
C3124      H3129   1.084       .  S
C3125      C3126   1.417       .  A
C3126      N3127   1.435       .  S
N3127      O3131   1.263       .  A
N3127      O3132   1.261       .  A
N3130      O3133   1.261       .  A
N3130      O3134   1.262       .  A
C3135      C3136   1.401       .  A
C3135      C3140   1.399   1_556  A
C3135      H3142   1.084       .  S
C3136      C3137   1.424   1_556  A
C3137      C3138   1.405       .  A
C3137      N3144   1.435   1_554  S
C3138      C3139   1.400       .  A
C3138      H3143   1.082       .  S
C3139      C3140   1.411       .  A
C3140      N3141   1.428       .  S
N3141      O3145   1.262       .  A
N3141      O3146   1.260       .  A
N3144      O3147   1.262       .  A
N3144      O3148   1.262   1_556  A
C3149      C3150   1.396       .  A
C3149      C3154   1.395       .  A
C3149      H3156   1.085       .  S
C3150      C3151   1.419       .  A
C3151      C3152   1.411       .  A
C3151      N3158   1.446       .  S
C3152      C3153   1.407       .  A
C3152      H3157   1.083       .  S
C3153      C3154   1.411       .  A
C3154      N3155   1.426       .  S
N3155      O3159   1.262       .  A
N3155      O3160   1.261       .  A
N3158      O3161   1.262       .  A
N3158      O3162   1.263       .  A
C3163      C3164   1.408       .  A
C3163      C3168   1.395       .  A
C3163      H3170   1.081       .  S
C3164      C3165   1.419       .  A
C3165      C3166   1.413       .  A
C3165      N3172   1.437       .  S
C3166      C3167   1.407       .  A
C3166      H3171   1.084       .  S
C3167      C3168   1.406       .  A
C3168      N3169   1.443       .  S
N3169      O3173   1.263       .  A
N3169      O3174   1.263       .  A
N3172      O3175   1.261       .  A
N3172      O3176   1.263       .  A
C3177      C3178   1.406       .  A
C3177      C3182   1.413       .  A
C3177      H3184   1.083       .  S
C3178      C3179   1.415       .  A
C3179      C3180   1.398       .  A
C3179      N3186   1.439       .  S
C3180      C3181   1.402       .  A
C3180      H3185   1.084       .  S
C3181      C3182   1.419       .  A
C3182      N3183   1.441       .  S
N3183      O3187   1.263       .  A
N3183      O3188   1.262       .  A
N3186      O3189   1.263       .  A
N3186      O3190   1.263       .  A
C3191      C3192   1.401       .  A
C3191      C3196   1.399       .  A
C3191      H3198   1.085       .  S
C3192      C3193   1.417       .  A
C3193      C3194   1.410       .  A
C3193      N3200   1.440       .  S
C3194      C3195   1.405       .  A
C3194      H3199   1.084       .  S
C3195      C3196   1.416       .  A
C3196      N3197   1.439       .  S
N3197      O3201   1.263       .  A
N3197      O3202   1.263       .  A
N3200      O3203   1.262       .  A
N3200      O3204   1.263       .  A
C3205      C3206   1.399       .  A
C3205      C3210   1.398       .  A
C3205      H3212   1.084       .  S
C3206      C3207   1.420       .  A
C3207      C3208   1.403       .  A
C3207      N3214   1.438       .  S
C3208      C3209   1.399       .  A
C3208      H3213   1.084       .  S
C3209      C3210   1.416       .  A
C3210      N3211   1.431       .  S
N3211      O3215   1.262       .  A
N3211      O3216   1.262       .  A
N3214      O3217   1.262       .  A
N3214      O3218   1.263       .  A
C3219      C3220   1.407       .  A
C3219      C3224   1.403       .  A
C3219      H3226   1.084       .  S
C3220      C3221   1.409       .  A
C3221      C3222   1.399       .  A
C3221      N3228   1.432       .  S
C3222      C3223   1.408       .  A
C3222      H3227   1.084       .  S
C3223      C3224   1.414       .  A
C3224      N3225   1.437       .  S
N3225      O3229   1.263       .  A
N3225      O3230   1.263       .  A
N3228      O3231   1.262       .  A
N3228      O3232   1.262       .  A
C3233      C3234   1.408       .  A
C3233      C3238   1.409   1_655  A
C3233      H3240   1.084       .  S
C3234      C3235   1.410       .  A
C3235      C3236   1.402   1_655  A
C3235      N3242   1.431       .  S
C3236      C3237   1.406       .  A
C3236      H3241   1.085       .  S
C3237      C3238   1.416       .  A
C3238      N3239   1.443       .  S
N3239      O3243   1.263   1_455  A
N3239      O3244   1.263       .  A
N3242      O3245   1.261       .  A
N3242      O3246   1.262   1_655  A
C3247      C3248   1.403       .  A
C3247      C3252   1.399       .  A
C3247      H3254   1.084       .  S
C3248      C3249   1.416       .  A
C3249      C3250   1.407       .  A
C3249      N3256   1.436       .  S
C3250      C3251   1.402       .  A
C3250      H3255   1.084       .  S
C3251      C3252   1.413       .  A
C3252      N3253   1.441       .  S
N3253      O3257   1.263       .  A
N3253      O3258   1.263       .  A
N3256      O3259   1.262       .  A
N3256      O3260   1.263       .  A
C3261      C3262   1.409       .  A
C3261      C3266   1.412       .  A
C3261      H3268   1.083       .  S
C3262      C3263   1.421       .  A
C3263      C3264   1.394       .  A
C3263      N3270   1.432       .  S
C3264      C3265   1.400       .  A
C3264      H3269   1.085       .  S
C3265      C3266   1.417       .  A
C3266      N3267   1.434       .  S
N3267      O3271   1.262       .  A
N3267      O3272   1.262       .  A
N3270      O3273   1.263       .  A
N3270      O3274   1.262       .  A
C3275      C3276   1.407       .  A
C3275      C3280   1.408       .  A
C3275      H3282   1.084       .  S
C3276      C3277   1.410       .  A
C3277      C3278   1.405   1_455  A
C3277      N3284   1.442       .  S
C3278      C3279   1.406       .  A
C3278      H3283   1.083       .  S
C3279      C3280   1.412   1_655  A
C3280      N3281   1.445   1_455  S
N3281      O3285   1.263   1_655  A
N3281      O3286   1.263       .  A
N3284      O3287   1.263       .  A
N3284      O3288   1.263   1_455  A
C3289      C3290   1.401       .  A
C3289      C3294   1.398       .  A
C3289      H3296   1.084       .  S
C3290      C3291   1.417       .  A
C3291      C3292   1.408       .  A
C3291      N3298   1.439       .  S
C3292      C3293   1.403       .  A
C3292      H3297   1.084       .  S
C3293      C3294   1.415       .  A
C3294      N3295   1.441       .  S
N3295      O3299   1.263       .  A
N3295      O3300   1.263       .  A
N3298      O3301   1.262       .  A
N3298      O3302   1.263       .  A
C3303      C3304   1.405       .  A
C3303      C3308   1.405       .  A
C3303      H3310   1.084       .  S
C3304      C3305   1.412       .  A
C3305      C3306   1.407       .  A
C3305      N3312   1.444       .  S
C3306      C3307   1.408       .  A
C3306      H3311   1.084       .  S
C3307      C3308   1.413       .  A
C3308      N3309   1.442       .  S
N3309      O3313   1.263       .  A
N3309      O3314   1.263       .  A
N3312      O3315   1.263       .  A
N3312      O3316   1.263       .  A
C3317      C3318   1.410       .  A
C3317      C3322   1.408       .  A
C3317      H3324   1.083       .  S
C3318      C3319   1.417       .  A
C3319      C3320   1.406       .  A
C3319      N3326   1.443       .  S
C3320      C3321   1.404       .  A
C3320      H3325   1.085       .  S
C3321      C3322   1.413       .  A
C3322      N3323   1.446       .  S
N3323      O3327   1.263       .  A
N3323      O3328   1.262       .  A
N3326      O3329   1.261       .  A
N3326      O3330   1.263       .  A
C3331      C3332   1.406       .  A
C3331      C3336   1.401       .  A
C3331      H3338   1.084       .  S
C3332      C3333   1.415       .  A
C3333      C3334   1.408       .  A
C3333      N3340   1.435   1_556  S
C3334      C3335   1.404       .  A
C3334      H3339   1.084       .  S
C3335      C3336   1.411       .  A
C3336      N3337   1.443       .  S
N3337      O3341   1.263       .  A
N3337      O3342   1.263       .  A
N3340      O3343   1.262       .  A
N3340      O3344   1.263       .  A
C3345      C3346   1.393       .  A
C3345      C3350   1.395       .  A
C3345      H3352   1.085       .  S
C3346      C3347   1.416       .  A
C3347      C3348   1.408       .  A
C3347      N3354   1.443       .  S
C3348      C3349   1.406       .  A
C3348      H3353   1.083       .  S
C3349      C3350   1.422       .  A
C3350      N3351   1.433       .  S
N3351      O3355   1.262       .  A
N3351      O3356   1.262       .  A
N3354      O3357   1.263       .  A
N3354      O3358   1.263       .  A
C3359      C3360   1.405       .  A
C3359      C3364   1.402       .  A
C3359      H3366   1.084       .  S
C3360      C3361   1.414       .  A
C3361      C3362   1.403       .  A
C3361      N3368   1.439       .  S
C3362      C3363   1.403       .  A
C3362      H3367   1.084       .  S
C3363      C3364   1.413       .  A
C3364      N3365   1.436       .  S
N3365      O3369   1.263       .  A
N3365      O3370   1.262       .  A
N3368      O3371   1.263       .  A
N3368      O3372   1.263       .  A
C3373      C3374   1.403       .  A
C3373      C3378   1.398       .  A
C3373      H3380   1.085       .  S
C3374      C3375   1.416       .  A
C3375      C3376   1.409       .  A
C3375      N3382   1.437       .  S
C3376      C3377   1.405       .  A
C3376      H3381   1.084       .  S
C3377      C3378   1.414       .  A
C3378      N3379   1.440       .  S
N3379      O3383   1.263       .  A
N3379      O3384   1.263       .  A
N3382      O3385   1.262       .  A
N3382      O3386   1.263       .  A
C3387      C3388   1.395       .  A
C3387      C3392   1.397       .  A
C3387      H3394   1.084       .  S
C3388      C3389   1.418       .  A
C3389      C3390   1.406       .  A
C3389      N3396   1.437       .  S
C3390      C3391   1.398       .  A
C3390      H3395   1.084       .  S
C3391      C3392   1.408       .  A
C3392      N3393   1.424       .  S
N3393      O3397   1.262       .  A
N3393      O3398   1.261       .  A
N3396      O3399   1.263       .  A
N3396      O3400   1.262       .  A
C3401      C3402   1.403       .  A
C3401      C3406   1.408       .  A
C3401      H3408   1.084       .  S
C3402      C3403   1.408       .  A
C3403      C3404   1.395       .  A
C3403      N3410   1.429       .  S
C3404      C3405   1.401       .  A
C3404      H3409   1.084       .  S
C3405      C3406   1.419       .  A
C3406      N3407   1.439       .  S
N3407      O3411   1.263       .  A
N3407      O3412   1.262       .  A
N3410      O3413   1.259       .  A
N3410      O3414   1.262       .  A
C3415      C3416   1.406       .  A
C3415      C3420   1.405       .  A
C3415      H3422   1.084       .  S
C3416      C3417   1.417       .  A
C3417      C3418   1.403       .  A
C3417      N3424   1.437       .  S
C3418      C3419   1.401       .  A
C3418      H3423   1.084       .  S
C3419      C3420   1.417       .  A
C3420      N3421   1.443   1_556  S
N3421      O3425   1.263       .  A
N3421      O3426   1.262       .  A
N3424      O3427   1.263       .  A
N3424      O3428   1.263       .  A
C3429      C3430   1.399       .  A
C3429      C3434   1.406   1_655  A
C3429      H3436   1.084       .  S
C3430      C3431   1.416       .  A
C3431      C3432   1.401   1_655  A
C3431      N3438   1.434       .  S
C3432      C3433   1.400       .  A
C3432      H3437   1.084       .  S
C3433      C3434   1.425       .  A
C3434      N3435   1.440       .  S
N3435      O3439   1.263       .  A
N3435      O3440   1.260       .  A
N3438      O3441   1.261       .  A
N3438      O3442   1.263       .  A
C3443      C3444   1.412       .  A
C3443      C3448   1.405       .  A
C3443      H3450   1.083       .  S
C3444      C3445   1.412       .  A
C3445      C3446   1.405       .  A
C3445      N3452   1.435       .  S
C3446      C3447   1.406       .  A
C3446      H3451   1.084       .  S
C3447      C3448   1.410       .  A
C3448      N3449   1.442       .  S
N3449      O3453   1.263       .  A
N3449      O3454   1.262       .  A
N3452      O3455   1.262       .  A
N3452      O3456   1.263       .  A
C3457      C3458   1.401       .  A
C3457      C3462   1.398       .  A
C3457      H3464   1.084       .  S
C3458      C3459   1.415       .  A
C3459      C3460   1.407       .  A
C3459      N3466   1.441       .  S
C3460      C3461   1.405       .  A
C3460      H3465   1.084       .  S
C3461      C3462   1.412       .  A
C3462      N3463   1.433       .  S
N3463      O3467   1.262       .  A
N3463      O3468   1.262       .  A
N3466      O3469   1.263       .  A
N3466      O3470   1.263       .  A
C3471      C3472   1.405       .  A
C3471      C3476   1.410       .  A
C3471      H3478   1.084       .  S
C3472      C3473   1.405       .  A
C3473      C3474   1.391       .  A
C3473      N3480   1.443       .  S
C3474      C3475   1.403       .  A
C3474      H3479   1.077       .  S
C3475      C3476   1.416       .  A
C3476      N3477   1.439   1_556  S
N3477      O3481   1.263       .  A
N3477      O3482   1.262       .  A
N3480      O3483   1.263       .  A
N3480      O3484   1.263       .  A
C3485      C3486   1.409       .  A
C3485      C3490   1.408   1_655  A
C3485      H3492   1.084       .  S
C3486      C3487   1.414   1_655  A
C3487      C3488   1.410       .  A
C3487      N3494   1.442       .  S
C3488      C3489   1.409       .  A
C3488      H3493   1.084       .  S
C3489      C3490   1.413       .  A
C3490      N3491   1.441       .  S
N3491      O3495   1.263       .  A
N3491      O3496   1.263   1_455  A
N3494      O3497   1.263   1_455  A
N3494      O3498   1.263       .  A
C3499      C3500   1.412       .  A
C3499      C3504   1.401       .  A
C3499      H3506   1.083       .  S
C3500      C3501   1.414       .  A
C3501      C3502   1.404       .  A
C3501      N3508   1.436       .  S
C3502      C3503   1.404       .  A
C3502      H3507   1.084       .  S
C3503      C3504   1.408       .  A
C3504      N3505   1.442       .  S
N3505      O3509   1.263       .  A
N3505      O3510   1.262       .  A
N3508      O3511   1.262       .  A
N3508      O3512   1.262       .  A
C3513      C3514   1.403       .  A
C3513      C3518   1.400       .  A
C3513      H3520   1.081       .  S
C3514      C3515   1.419       .  A
C3515      C3516   1.405       .  A
C3515      N3522   1.438       .  S
C3516      C3517   1.406       .  A
C3516      H3521   1.083       .  S
C3517      C3518   1.417       .  A
C3518      N3519   1.437       .  S
N3519      O3523   1.263       .  A
N3519      O3524   1.263       .  A
N3522      O3525   1.263       .  A
N3522      O3526   1.263       .  A
C3527      C3528   1.399       .  A
C3527      C3532   1.402       .  A
C3527      H3534   1.084       .  S
C3528      C3529   1.421       .  A
C3529      C3530   1.404       .  A
C3529      N3536   1.440       .  S
C3530      C3531   1.397       .  A
C3530      H3535   1.084       .  S
C3531      C3532   1.418       .  A
C3532      N3533   1.439       .  S
N3533      O3537   1.263       .  A
N3533      O3538   1.261       .  A
N3536      O3539   1.261       .  A
N3536      O3540   1.263       .  A
C3541      C3542   1.404       .  A
C3541      C3546   1.401       .  A
C3541      H3548   1.084       .  S
C3542      C3543   1.418       .  A
C3543      C3544   1.403       .  A
C3543      N3550   1.439       .  S
C3544      C3545   1.399       .  A
C3544      H3549   1.084       .  S
C3545      C3546   1.414       .  A
C3546      N3547   1.438       .  S
N3547      O3551   1.263       .  A
N3547      O3552   1.261       .  A
N3550      O3553   1.263       .  A
N3550      O3554   1.262       .  A
C3555      C3556   1.400       .  A
C3555      C3560   1.399       .  A
C3555      H3562   1.084       .  S
C3556      C3557   1.422       .  A
C3557      C3558   1.413       .  A
C3557      N3564   1.441       .  S
C3558      C3559   1.405       .  A
C3558      H3563   1.083       .  S
C3559      C3560   1.419       .  A
C3560      N3561   1.437       .  S
N3561      O3565   1.263       .  A
N3561      O3566   1.262       .  A
N3564      O3567   1.261       .  A
N3564      O3568   1.263       .  A
C3569      C3570   1.408       .  A
C3569      C3574   1.407       .  A
C3569      H3576   1.084       .  S
C3570      C3571   1.415       .  A
C3571      C3572   1.408       .  A
C3571      N3578   1.446       .  S
C3572      C3573   1.407       .  A
C3572      H3577   1.084       .  S
C3573      C3574   1.414       .  A
C3574      N3575   1.445       .  S
N3575      O3579   1.263       .  A
N3575      O3580   1.261       .  A
N3578      O3581   1.261   1_556  A
N3578      O3582   1.263   1_556  A
C3583      C3584   1.403       .  A
C3583      C3588   1.403       .  A
C3583      H3590   1.084       .  S
C3584      C3585   1.418       .  A
C3585      C3586   1.402       .  A
C3585      N3592   1.434       .  S
C3586      C3587   1.404       .  A
C3586      H3591   1.084       .  S
C3587      C3588   1.419       .  A
C3588      N3589   1.431       .  S
N3589      O3593   1.262       .  A
N3589      O3594   1.261       .  A
N3592      O3595   1.261       .  A
N3592      O3596   1.262       .  A
C3597      C3598   1.409       .  A
C3597      C3602   1.401       .  A
C3597      H3604   1.083       .  S
C3598      C3599   1.417       .  A
C3599      C3600   1.399       .  A
C3599      N3606   1.435       .  S
C3600      C3601   1.407       .  A
C3600      H3605   1.083       .  S
C3601      C3602   1.415       .  A
C3602      N3603   1.436       .  S
N3603      O3607   1.263       .  A
N3603      O3608   1.263       .  A
N3606      O3609   1.262       .  A
N3606      O3610   1.263       .  A
C3611      C3612   1.401       .  A
C3611      C3616   1.398       .  A
C3611      H3618   1.083       .  S
C3612      C3613   1.420       .  A
C3613      C3614   1.398       .  A
C3613      N3620   1.435       .  S
C3614      C3615   1.401       .  A
C3614      H3619   1.084       .  S
C3615      C3616   1.422       .  A
C3616      N3617   1.437       .  S
N3617      O3621   1.263       .  A
N3617      O3622   1.261       .  A
N3620      O3623   1.263       .  A
N3620      O3624   1.262       .  A
C3625      C3626   1.405       .  A
C3625      C3630   1.402       .  A
C3625      H3632   1.084       .  S
C3626      C3627   1.420       .  A
C3627      C3628   1.405       .  A
C3627      N3634   1.434       .  S
C3628      C3629   1.404       .  A
C3628      H3633   1.084       .  S
C3629      C3630   1.415       .  A
C3630      N3631   1.431       .  S
N3631      O3635   1.262       .  A
N3631      O3636   1.262       .  A
N3634      O3637   1.261       .  A
N3634      O3638   1.262       .  A
C3639      C3640   1.399       .  A
C3639      C3644   1.403       .  A
C3639      H3646   1.084       .  S
C3640      C3641   1.410       .  A
C3641      C3642   1.404       .  A
C3641      N3648   1.433       .  S
C3642      C3643   1.402       .  A
C3642      H3647   1.084       .  S
C3643      C3644   1.418       .  A
C3644      N3645   1.436       .  S
N3645      O3649   1.263       .  A
N3645      O3650   1.261       .  A
N3648      O3651   1.262       .  A
N3648      O3652   1.263       .  A
C3653      C3654   1.409       .  A
C3653      C3658   1.408       .  A
C3653      H3660   1.084       .  S
C3654      C3655   1.412       .  A
C3655      C3656   1.408       .  A
C3655      N3662   1.444       .  S
C3656      C3657   1.409       .  A
C3656      H3661   1.084       .  S
C3657      C3658   1.412       .  A
C3658      N3659   1.443       .  S
N3659      O3663   1.263       .  A
N3659      O3664   1.263       .  A
N3662      O3665   1.263       .  A
N3662      O3666   1.263       .  A
C3667      C3668   1.400       .  A
C3667      C3672   1.405       .  A
C3667      H3674   1.084       .  S
C3668      C3669   1.416       .  A
C3669      C3670   1.398       .  A
C3669      N3676   1.432       .  S
C3670      C3671   1.400       .  A
C3670      H3675   1.084       .  S
C3671      C3672   1.423       .  A
C3672      N3673   1.440       .  S
N3673      O3677   1.263       .  A
N3673      O3678   1.261       .  A
N3676      O3679   1.262       .  A
N3676      O3680   1.262       .  A
C3681      C3682   1.403       .  A
C3681      C3686   1.403       .  A
C3681      H3688   1.079       .  S
C3682      C3683   1.415       .  A
C3683      C3684   1.407       .  A
C3683      N3690   1.441       .  S
C3684      C3685   1.406       .  A
C3684      H3689   1.084       .  S
C3685      C3686   1.414       .  A
C3686      N3687   1.441       .  S
N3687      O3691   1.263       .  A
N3687      O3692   1.263       .  A
N3690      O3693   1.263       .  A
N3690      O3694   1.263       .  A
C3695      C3696   1.404       .  A
C3695      C3700   1.401       .  A
C3695      H3702   1.079       .  S
C3696      C3697   1.414       .  A
C3697      C3698   1.408       .  A
C3697      N3704   1.441   1_554  S
C3698      C3699   1.405       .  A
C3698      H3703   1.084       .  S
C3699      C3700   1.409       .  A
C3700      N3701   1.443       .  S
N3701      O3705   1.263       .  A
N3701      O3706   1.263       .  A
N3704      O3707   1.263       .  A
N3704      O3708   1.263       .  A
C3709      C3710   1.409   1_545  A
C3709      C3714   1.407       .  A
C3709      H3716   1.083       .  S
C3710      C3711   1.416       .  A
C3711      C3712   1.405       .  A
C3711      N3718   1.443       .  S
C3712      C3713   1.406   1_565  A
C3712      H3717   1.084       .  S
C3713      C3714   1.412       .  A
C3714      N3715   1.443       .  S
N3715      O3719   1.263       .  A
N3715      O3720   1.263       .  A
N3718      O3721   1.261       .  A
N3718      O3722   1.263       .  A
C3723      C3724   1.401       .  A
C3723      C3728   1.402       .  A
C3723      H3730   1.084       .  S
C3724      C3725   1.412       .  A
C3725      C3726   1.400       .  A
C3725      N3732   1.435       .  S
C3726      C3727   1.404       .  A
C3726      H3731   1.084       .  S
C3727      C3728   1.415       .  A
C3728      N3729   1.439       .  S
N3729      O3733   1.263       .  A
N3729      O3734   1.263       .  A
N3732      O3735   1.262       .  A
N3732      O3736   1.262       .  A
C3737      C3738   1.407       .  A
C3737      C3742   1.408       .  A
C3737      H3744   1.084       .  S
C3738      C3739   1.414       .  A
C3739      C3740   1.406   1_545  A
C3739      N3746   1.447       .  S
C3740      C3741   1.407       .  A
C3740      H3745   1.084       .  S
C3741      C3742   1.415   1_565  A
C3742      N3743   1.448       .  S
N3743      O3747   1.263       .  A
N3743      O3748   1.262       .  A
N3746      O3749   1.262   1_545  A
N3746      O3750   1.263   1_545  A
C3751      C3752   1.401   1_565  A
C3751      C3756   1.400       .  A
C3751      H3758   1.084       .  S
C3752      C3753   1.420       .  A
C3753      C3754   1.400       .  A
C3753      N3760   1.437       .  S
C3754      C3755   1.399       .  A
C3754      H3759   1.084       .  S
C3755      C3756   1.417   1_545  A
C3756      N3757   1.438       .  S
N3757      O3761   1.263       .  A
N3757      O3762   1.262       .  A
N3760      O3763   1.262       .  A
N3760      O3764   1.263       .  A
C3765      C3766   1.410       .  A
C3765      C3770   1.403       .  A
C3765      H3772   1.084       .  S
C3766      C3767   1.413   1_545  A
C3767      C3768   1.400       .  A
C3767      N3774   1.437       .  S
C3768      C3769   1.407   1_565  A
C3768      H3773   1.083       .  S
C3769      C3770   1.414       .  A
C3770      N3771   1.438       .  S
N3771      O3775   1.263       .  A
N3771      O3776   1.263       .  A
N3774      O3777   1.263       .  A
N3774      O3778   1.263       .  A
C3779      C3780   1.402       .  A
C3779      C3784   1.406       .  A
C3779      H3786   1.084       .  S
C3780      C3781   1.415       .  A
C3781      C3782   1.403       .  A
C3781      N3788   1.441       .  S
C3782      C3783   1.405       .  A
C3782      H3787   1.084       .  S
C3783      C3784   1.417       .  A
C3784      N3785   1.438       .  S
N3785      O3789   1.263       .  A
N3785      O3790   1.263       .  A
N3788      O3791   1.262       .  A
N3788      O3792   1.263       .  A
C3793      C3794   1.408   1_565  A
C3793      C3798   1.404       .  A
C3793      H3800   1.083       .  S
C3794      C3795   1.418       .  A
C3795      C3796   1.404       .  A
C3795      N3802   1.435       .  S
C3796      C3797   1.409   1_545  A
C3796      H3801   1.083       .  S
C3797      C3798   1.419       .  A
C3798      N3799   1.435       .  S
N3799      O3803   1.263       .  A
N3799      O3804   1.262       .  A
N3802      O3805   1.263       .  A
N3802      O3806   1.263       .  A
C3807      C3808   1.410       .  A
C3807      C3812   1.405       .  A
C3807      H3814   1.083       .  S
C3808      C3809   1.418       .  A
C3809      C3810   1.404       .  A
C3809      N3816   1.434       .  S
C3810      C3811   1.400       .  A
C3810      H3815   1.084       .  S
C3811      C3812   1.413       .  A
C3812      N3813   1.444   1_554  S
N3813      O3817   1.263       .  A
N3813      O3818   1.262       .  A
N3816      O3819   1.262       .  A
N3816      O3820   1.262       .  A
C3821      C3822   1.404       .  A
C3821      C3826   1.409       .  A
C3821      H3828   1.084       .  S
C3822      C3823   1.417   1_545  A
C3823      C3824   1.398       .  A
C3823      N3830   1.438       .  S
C3824      C3825   1.398   1_565  A
C3824      H3829   1.085       .  S
C3825      C3826   1.418       .  A
C3826      N3827   1.442       .  S
N3827      O3831   1.261       .  A
N3827      O3832   1.263   1_554  A
N3830      O3833   1.262       .  A
N3830      O3834   1.263       .  A
C3835      C3836   1.409   1_545  A
C3835      C3840   1.406       .  A
C3835      H3842   1.083       .  S
C3836      C3837   1.410       .  A
C3837      C3838   1.401       .  A
C3837      N3844   1.429       .  S
C3838      C3839   1.408   1_565  A
C3838      H3843   1.084       .  S
C3839      C3840   1.414       .  A
C3840      N3841   1.440       .  S
N3841      O3845   1.263       .  A
N3841      O3846   1.263       .  A
N3844      O3847   1.262       .  A
N3844      O3848   1.262       .  A
C3849      C3850   1.412       .  A
C3849      C3854   1.402       .  A
C3849      H3856   1.083       .  S
C3850      C3851   1.414   1_545  A
C3851      C3852   1.402       .  A
C3851      N3858   1.436       .  S
C3852      C3853   1.410   1_565  A
C3852      H3857   1.084       .  S
C3853      C3854   1.412       .  A
C3854      N3855   1.437       .  S
N3855      O3859   1.263       .  A
N3855      O3860   1.263       .  A
N3858      O3861   1.263       .  A
N3858      O3862   1.263       .  A
C3863      C3864   1.404   1_565  A
C3863      C3868   1.401       .  A
C3863      H3870   1.084       .  S
C3864      C3865   1.419       .  A
C3865      C3866   1.406       .  A
C3865      N3872   1.450       .  S
C3866      C3867   1.404       .  A
C3866      H3871   1.084       .  S
C3867      C3868   1.411   1_545  A
C3868      N3869   1.440       .  S
N3869      O3873   1.263       .  A
N3869      O3874   1.263       .  A
N3872      O3875   1.262       .  A
N3872      O3876   1.263       .  A
C3877      C3878   1.399       .  A
C3877      C3882   1.400       .  A
C3877      H3884   1.084       .  S
C3878      C3879   1.415       .  A
C3879      C3880   1.404       .  A
C3879      N3886   1.448       .  S
C3880      C3881   1.408       .  A
C3880      H3885   1.083       .  S
C3881      C3882   1.418       .  A
C3882      N3883   1.435       .  S
N3883      O3887   1.262       .  A
N3883      O3888   1.263       .  A
N3886      O3889   1.262       .  A
N3886      O3890   1.263       .  A
C3891      C3892   1.402       .  A
C3891      C3896   1.406       .  A
C3891      H3898   1.084       .  S
C3892      C3893   1.410   1_545  A
C3893      C3894   1.397       .  A
C3893      N3900   1.435       .  S
C3894      C3895   1.404   1_565  A
C3894      H3899   1.084       .  S
C3895      C3896   1.416       .  A
C3896      N3897   1.433       .  S
N3897      O3901   1.262       .  A
N3897      O3902   1.262       .  A
N3900      O3903   1.261       .  A
N3900      O3904   1.262       .  A
C3905      C3906   1.408       .  A
C3905      C3910   1.401       .  A
C3905      H3912   1.084       .  S
C3906      C3907   1.413       .  A
C3907      C3908   1.405       .  A
C3907      N3914   1.429       .  S
C3908      C3909   1.410       .  A
C3908      H3913   1.083       .  S
C3909      C3910   1.414       .  A
C3910      N3911   1.430       .  S
N3911      O3915   1.262       .  A
N3911      O3916   1.262       .  A
N3914      O3917   1.262       .  A
N3914      O3918   1.262       .  A
C3919      C3920   1.393       .  A
C3919      C3924   1.394       .  A
C3919      H3926   1.085       .  S
C3920      C3921   1.420       .  A
C3921      C3922   1.408       .  A
C3921      N3928   1.447       .  S
C3922      C3923   1.403       .  A
C3922      H3927   1.083       .  S
C3923      C3924   1.421       .  A
C3924      N3925   1.434       .  S
N3925      O3929   1.262       .  A
N3925      O3930   1.262       .  A
N3928      O3931   1.262       .  A
N3928      O3932   1.263       .  A
C3933      C3934   1.405       .  A
C3933      C3938   1.402       .  A
C3933      H3940   1.084       .  S
C3934      C3935   1.427       .  A
C3935      C3936   1.408       .  A
C3935      N3942   1.435       .  S
C3936      C3937   1.402       .  A
C3936      H3941   1.084       .  S
C3937      C3938   1.419       .  A
C3938      N3939   1.431       .  S
N3939      O3943   1.262       .  A
N3939      O3944   1.262       .  A
N3942      O3945   1.262       .  A
N3942      O3946   1.263       .  A
C3947      C3948   1.404       .  A
C3947      C3952   1.396       .  A
C3947      H3954   1.084       .  S
C3948      C3949   1.419       .  A
C3949      C3950   1.413       .  A
C3949      N3956   1.438       .  S
C3950      C3951   1.406       .  A
C3950      H3955   1.084       .  S
C3951      C3952   1.412       .  A
C3952      N3953   1.437       .  S
N3953      O3957   1.263       .  A
N3953      O3958   1.263       .  A
N3956      O3959   1.262       .  A
N3956      O3960   1.263       .  A
C3961      C3962   1.402       .  A
C3961      C3966   1.400   1_554  A
C3961      H3968   1.084       .  S
C3962      C3963   1.420       .  A
C3963      C3964   1.399   1_554  A
C3963      N3970   1.434       .  S
C3964      C3965   1.402       .  A
C3964      H3969   1.084       .  S
C3965      C3966   1.420       .  A
C3966      N3967   1.435       .  S
N3967      O3971   1.262       .  A
N3967      O3972   1.263       .  A
N3970      O3973   1.262       .  A
N3970      O3974   1.263       .  A
C3975      C3976   1.404       .  A
C3975      C3980   1.399       .  A
C3975      H3982   1.084       .  S
C3976      C3977   1.419       .  A
C3977      C3978   1.402       .  A
C3977      N3984   1.437       .  S
C3978      C3979   1.404       .  A
C3978      H3983   1.084       .  S
C3979      C3980   1.413       .  A
C3980      N3981   1.431       .  S
N3981      O3985   1.261       .  A
N3981      O3986   1.262       .  A
N3984      O3987   1.263       .  A
N3984      O3988   1.263       .  A
C3989      C3990   1.410   1_554  A
C3989      C3994   1.407       .  A
C3989      H3996   1.083       .  S
C3990      C3991   1.412       .  A
C3991      C3992   1.403   1_556  A
C3991      N3998   1.439       .  S
C3992      C3993   1.407       .  A
C3992      H3997   1.084   1_554  S
C3993      C3994   1.411       .  A
C3994      N3995   1.442       .  S
N3995      O3999   1.263       .  A
N3995      O4000   1.263       .  A
N3998      O4001   1.263       .  A
N3998      O4002   1.263       .  A
C4003      C4004   1.397       .  A
C4003      C4008   1.395       .  A
C4003      H4010   1.085       .  S
C4004      C4005   1.421       .  A
C4005      C4006   1.413       .  A
C4005      N4012   1.444       .  S
C4006      C4007   1.406       .  A
C4006      H4011   1.083       .  S
C4007      C4008   1.417       .  A
C4008      N4009   1.430       .  S
N4009      O4013   1.262       .  A
N4009      O4014   1.262   1_556  A
N4012      O4015   1.262       .  A
N4012      O4016   1.263       .  A
C4017      C4018   1.402       .  A
C4017      C4022   1.403       .  A
C4017      H4024   1.084       .  S
C4018      C4019   1.415       .  A
C4019      C4020   1.406       .  A
C4019      N4026   1.447       .  S
C4020      C4021   1.404       .  A
C4020      H4025   1.084       .  S
C4021      C4022   1.414       .  A
C4022      N4023   1.443       .  S
N4023      O4027   1.263       .  A
N4023      O4028   1.261       .  A
N4026      O4029   1.262       .  A
N4026      O4030   1.263       .  A
C4031      C4032   1.410       .  A
C4031      C4036   1.410       .  A
C4031      H4038   1.082       .  S
C4032      C4033   1.415       .  A
C4033      C4034   1.412       .  A
C4033      N4040   1.443       .  S
C4034      C4035   1.407       .  A
C4034      H4039   1.083       .  S
C4035      C4036   1.408       .  A
C4036      N4037   1.438       .  S
N4037      O4041   1.261       .  A
N4037      O4042   1.263       .  A
N4040      O4043   1.263       .  A
N4040      O4044   1.263       .  A
C4045      C4046   1.396       .  A
C4045      C4050   1.399       .  A
C4045      H4052   1.084       .  S
C4046      C4047   1.421       .  A
C4047      C4048   1.405       .  A
C4047      N4054   1.444       .  S
C4048      C4049   1.401       .  A
C4048      H4053   1.084       .  S
C4049      C4050   1.419       .  A
C4050      N4051   1.436       .  S
N4051      O4055   1.263       .  A
N4051      O4056   1.262       .  A
N4054      O4057   1.261       .  A
N4054      O4058   1.263       .  A
C4059      C4060   1.403       .  A
C4059      C4064   1.399       .  A
C4059      H4066   1.084       .  S
C4060      C4061   1.422       .  A
C4061      C4062   1.402       .  A
C4061      N4068   1.442       .  S
C4062      C4063   1.401       .  A
C4062      H4067   1.084       .  S
C4063      C4064   1.413       .  A
C4064      N4065   1.434       .  S
N4065      O4069   1.263       .  A
N4065      O4070   1.261       .  A
N4068      O4071   1.260       .  A
N4068      O4072   1.262       .  A
C4073      C4074   1.407       .  A
C4073      C4078   1.396       .  A
C4073      H4080   1.084       .  S
C4074      C4075   1.414       .  A
C4075      C4076   1.400       .  A
C4075      N4082   1.434       .  S
C4076      C4077   1.408       .  A
C4076      H4081   1.084       .  S
C4077      C4078   1.414       .  A
C4078      N4079   1.434       .  S
N4079      O4083   1.262       .  A
N4079      O4084   1.262       .  A
N4082      O4085   1.262       .  A
N4082      O4086   1.262       .  A
C4087      C4088   1.405       .  A
C4087      C4092   1.408       .  A
C4087      H4094   1.084       .  S
C4088      C4089   1.418       .  A
C4089      C4090   1.408       .  A
C4089      N4096   1.449       .  S
C4090      C4091   1.405       .  A
C4090      H4095   1.084       .  S
C4091      C4092   1.414       .  A
C4092      N4093   1.438       .  S
N4093      O4097   1.263       .  A
N4093      O4098   1.261       .  A
N4096      O4099   1.262       .  A
N4096      O4100   1.263       .  A
C4101      C4102   1.399       .  A
C4101      C4106   1.399   1_556  A
C4101      H4108   1.084       .  S
C4102      C4103   1.418   1_556  A
C4103      C4104   1.407       .  A
C4103      N4110   1.433   1_554  S
C4104      C4105   1.411       .  A
C4104      H4109   1.083       .  S
C4105      C4106   1.416       .  A
C4106      N4107   1.425       .  S
N4107      O4111   1.262       .  A
N4107      O4112   1.262   1_554  A
N4110      O4113   1.262   1_556  A
N4110      O4114   1.262       .  A
C4115      C4116   1.397       .  A
C4115      C4120   1.400       .  A
C4115      H4122   1.084   1_556  S
C4116      C4117   1.423       .  A
C4117      C4118   1.407       .  A
C4117      N4124   1.445       .  S
C4118      C4119   1.400       .  A
C4118      H4123   1.083       .  S
C4119      C4120   1.419       .  A
C4120      N4121   1.436   1_556  S
N4121      O4125   1.263       .  A
N4121      O4126   1.262       .  A
N4124      O4127   1.261       .  A
N4124      O4128   1.263       .  A
C4129      C4130   1.405       .  A
C4129      C4134   1.403       .  A
C4129      H4136   1.083       .  S
C4130      C4131   1.416       .  A
C4131      C4132   1.401       .  A
C4131      N4138   1.432       .  S
C4132      C4133   1.401       .  A
C4132      H4137   1.084       .  S
C4133      C4134   1.414       .  A
C4134      N4135   1.442       .  S
N4135      O4139   1.263       .  A
N4135      O4140   1.263       .  A
N4138      O4141   1.262       .  A
N4138      O4142   1.262       .  A
C4143      C4144   1.406       .  A
C4143      C4148   1.405       .  A
C4143      H4150   1.081       .  S
C4144      C4145   1.415       .  A
C4145      C4146   1.406       .  A
C4145      N4152   1.440       .  S
C4146      C4147   1.407       .  A
C4146      H4151   1.084       .  S
C4147      C4148   1.414       .  A
C4148      N4149   1.440       .  S
N4149      O4153   1.263       .  A
N4149      O4154   1.263       .  A
N4152      O4155   1.263       .  A
N4152      O4156   1.263       .  A
C4157      C4158   1.402       .  A
C4157      C4162   1.401       .  A
C4157      H4164   1.084       .  S
C4158      C4159   1.409       .  A
C4159      C4160   1.402       .  A
C4159      N4166   1.443       .  S
C4160      C4161   1.412       .  A
C4160      H4165   1.083       .  S
C4161      C4162   1.411       .  A
C4162      N4163   1.429       .  S
N4163      O4167   1.262       .  A
N4163      O4168   1.262       .  A
N4166      O4169   1.262       .  A
N4166      O4170   1.263       .  A
C4171      C4172   1.403       .  A
C4171      C4176   1.406       .  A
C4171      H4178   1.084       .  S
C4172      C4173   1.414       .  A
C4173      C4174   1.400       .  A
C4173      N4180   1.434       .  S
C4174      C4175   1.400       .  A
C4174      H4179   1.084       .  S
C4175      C4176   1.416       .  A
C4176      N4177   1.436       .  S
N4177      O4181   1.262       .  A
N4177      O4182   1.262       .  A
N4180      O4183   1.260       .  A
N4180      O4184   1.262       .  A
C4185      C4186   1.406       .  A
C4185      C4190   1.404       .  A
C4185      H4192   1.084       .  S
C4186      C4187   1.412       .  A
C4187      C4188   1.405       .  A
C4187      N4194   1.443       .  S
C4188      C4189   1.406       .  A
C4188      H4193   1.084       .  S
C4189      C4190   1.411       .  A
C4190      N4191   1.442       .  S
N4191      O4195   1.263       .  A
N4191      O4196   1.263       .  A
N4194      O4197   1.263       .  A
N4194      O4198   1.263       .  A
C4199      C4200   1.401       .  A
C4199      C4204   1.402       .  A
C4199      H4206   1.084       .  S
C4200      C4201   1.411       .  A
C4201      C4202   1.403       .  A
C4201      N4208   1.437       .  S
C4202      C4203   1.405       .  A
C4202      H4207   1.084       .  S
C4203      C4204   1.416       .  A
C4204      N4205   1.433       .  S
N4205      O4209   1.262       .  A
N4205      O4210   1.262       .  A
N4208      O4211   1.263       .  A
N4208      O4212   1.261       .  A
C4213      C4214   1.402       .  A
C4213      C4218   1.405       .  A
C4213      H4220   1.084       .  S
C4214      C4215   1.415       .  A
C4215      C4216   1.402       .  A
C4215      N4222   1.433       .  S
C4216      C4217   1.404       .  A
C4216      H4221   1.084       .  S
C4217      C4218   1.424       .  A
C4218      N4219   1.438       .  S
N4219      O4223   1.263       .  A
N4219      O4224   1.261       .  A
N4222      O4225   1.262       .  A
N4222      O4226   1.263       .  A
C4227      C4228   1.404       .  A
C4227      C4232   1.408       .  A
C4227      H4234   1.084       .  S
C4228      C4229   1.418       .  A
C4229      C4230   1.400       .  A
C4229      N4236   1.439       .  S
C4230      C4231   1.399       .  A
C4230      H4235   1.084       .  S
C4231      C4232   1.417       .  A
C4232      N4233   1.442       .  S
N4233      O4237   1.263       .  A
N4233      O4238   1.262       .  A
N4236      O4239   1.263       .  A
N4236      O4240   1.263       .  A
C4241      C4242   1.401       .  A
C4241      C4246   1.404       .  A
C4241      H4248   1.084       .  S
C4242      C4243   1.416       .  A
C4243      C4244   1.404       .  A
C4243      N4250   1.443       .  S
C4244      C4245   1.405       .  A
C4244      H4249   1.084       .  S
C4245      C4246   1.418       .  A
C4246      N4247   1.437       .  S
N4247      O4251   1.263       .  A
N4247      O4252   1.263       .  A
N4250      O4253   1.262       .  A
N4250      O4254   1.263       .  A
C4255      C4256   1.401       .  A
C4255      C4260   1.393       .  A
C4255      H4262   1.085       .  S
C4256      C4257   1.418       .  A
C4257      C4258   1.410       .  A
C4257      N4264   1.437       .  S
C4258      C4259   1.408       .  A
C4258      H4263   1.083       .  S
C4259      C4260   1.418       .  A
C4260      N4261   1.435       .  S
N4261      O4265   1.263       .  A
N4261      O4266   1.263       .  A
N4264      O4267   1.262       .  A
N4264      O4268   1.262       .  A
C4269      C4270   1.409       .  A
C4269      C4274   1.403       .  A
C4269      H4276   1.084       .  S
C4270      C4271   1.415       .  A
C4271      C4272   1.405       .  A
C4271      N4278   1.438       .  S
C4272      C4273   1.409       .  A
C4272      H4277   1.083       .  S
C4273      C4274   1.415       .  A
C4274      N4275   1.439       .  S
N4275      O4279   1.263       .  A
N4275      O4280   1.263       .  A
N4278      O4281   1.263       .  A
N4278      O4282   1.263       .  A
C4283      C4284   1.405       .  A
C4283      C4288   1.410       .  A
C4283      H4290   1.084       .  S
C4284      C4285   1.413       .  A
C4285      C4286   1.398       .  A
C4285      N4292   1.441       .  S
C4286      C4287   1.406       .  A
C4286      H4291   1.084       .  S
C4287      C4288   1.416       .  A
C4288      N4289   1.435       .  S
N4289      O4293   1.262       .  A
N4289      O4294   1.262       .  A
N4292      O4295   1.263       .  A
N4292      O4296   1.263       .  A
C4297      C4298   1.404       .  A
C4297      C4302   1.403   1_554  A
C4297      H4304   1.084       .  S
C4298      C4299   1.412       .  A
C4299      C4300   1.399   1_554  A
C4299      N4306   1.433       .  S
C4300      C4301   1.406       .  A
C4300      H4305   1.084       .  S
C4301      C4302   1.417       .  A
C4302      N4303   1.437       .  S
N4303      O4307   1.263       .  A
N4303      O4308   1.263       .  A
N4306      O4309   1.262       .  A
N4306      O4310   1.262       .  A
C4311      C4312   1.410       .  A
C4311      C4316   1.399       .  A
C4311      H4318   1.083       .  S
C4312      C4313   1.416       .  A
C4313      C4314   1.400       .  A
C4313      N4320   1.433       .  S
C4314      C4315   1.408       .  A
C4314      H4319   1.084       .  S
C4315      C4316   1.412       .  A
C4316      N4317   1.434       .  S
N4317      O4321   1.262       .  A
N4317      O4322   1.262       .  A
N4320      O4323   1.262       .  A
N4320      O4324   1.262       .  A
C4325      C4326   1.408       .  A
C4325      C4330   1.406       .  A
C4325      H4332   1.083       .  S
C4326      C4327   1.417       .  A
C4327      C4328   1.404       .  A
C4327      N4334   1.432       .  S
C4328      C4329   1.401       .  A
C4328      H4333   1.084       .  S
C4329      C4330   1.414       .  A
C4330      N4331   1.443       .  S
N4331      O4335   1.263       .  A
N4331      O4336   1.263       .  A
N4334      O4337   1.262       .  A
N4334      O4338   1.262       .  A
C4339      C4340   1.403       .  A
C4339      C4344   1.400       .  A
C4339      H4346   1.084       .  S
C4340      C4341   1.414       .  A
C4341      C4342   1.406       .  A
C4341      N4348   1.441       .  S
C4342      C4343   1.403       .  A
C4342      H4347   1.084       .  S
C4343      C4344   1.411       .  A
C4344      N4345   1.443       .  S
N4345      O4349   1.263       .  A
N4345      O4350   1.263       .  A
N4348      O4351   1.262       .  A
N4348      O4352   1.263       .  A
