geometry optimzed in LAMMPS
_audit_creation_date              2020-11-30 
_audit_creation_method            'lammps2cif' 
_symmetry_space_group_name_H-M    'P1' 
_symmetry_Int_Tables_number       1 
_symmetry_cell_setting            triclinic 
loop_ 
_symmetry_equiv_pos_as_xyz 
  x,y,z 
_cell_length_a                    38.83708181122965 
_cell_length_b                    38.83293688860954 
_cell_length_c                    28.568431156439097 
_cell_angle_alpha                 90.08858525005549 
_cell_angle_beta                  89.9164402816736 
_cell_angle_gamma                 120.10832774025025 
loop_ 
_atom_site_label 
_atom_site_type_symbol 
_atom_site_fract_x 
_atom_site_fract_y 
_atom_site_fract_z 
_atom_site_charge 
Fe1        Fe  0.44197075  0.05731679  0.32773682     1.65780
Fe2        Fe  0.46463415  0.03985299  0.43181729     1.73250
Fe3        Fe  0.41534221  0.08769536  0.42804428     1.54410
O4          O  0.43670683  0.13360445  0.38014826    -0.83050
O5          O  0.40895521  0.99836655  0.45334008    -0.81350
O6          O  0.46552765  0.11792036  0.32174296    -0.85550
O7          O  0.38499624  0.04808803  0.31856846    -0.80410
O8          O  0.46884834  0.12516107  0.46677056    -0.82180
O9          O  0.46351609  0.50278939  0.38168148    -0.84930
C10         C  0.35732880  0.04391212  0.34598987     0.95840
C11         C  0.45887139  0.14242093  0.34415342     1.03280
O12         O  0.44010992  0.06213304  0.39494382    -1.13910
O13         O  0.01853461  0.08284452  0.40448487    -0.76340
O14         O  0.50082187  0.06688336  0.32977896    -0.79830
O15         O  0.36310371  0.05406663  0.38922409    -0.80520
C16         C  0.02671268  0.07766528  0.36256741     0.94740
O17         O  0.41655600  0.49439650  0.33325886    -0.78470
O18         O  0.46788034  0.07183706  0.48978463    -0.83670
C19         C  0.39013270  0.00803891  0.48180992     0.97360
C20         C  0.48444805  0.10892016  0.49044862     1.03280
O21         O  0.39192645  0.04200689  0.48005441    -0.79310
C22         C  0.43339827  0.48000869  0.35832816     1.01580
Fe23       Fe  0.06505287  0.11918511  0.67838130     1.65780
Fe24       Fe  0.04248798  0.07895984  0.57420009     1.73250
Fe25       Fe  0.09195154  0.17624664  0.57824051     1.54420
O26         O  0.07064055  0.20084990  0.62620618    -0.83050
O27         O  0.09816348  0.09324496  0.55274149    -0.81350
O28         O  0.04152308  0.15618882  0.68435453    -0.85550
O29         O  0.12205602  0.16700249  0.68770987    -0.80410
O30         O  0.03848799  0.16012609  0.53948351    -0.82180
O31         O  0.04345038  0.04299003  0.62425873    -0.84930
C32         C  0.14983574  0.19032820  0.66029266     0.95840
C33         C  0.04824769  0.18736237  0.66200438     1.03280
O34         O  0.06703257  0.12584502  0.61119630    -1.13910
O35         O  0.48858366  0.06798777  0.60146014    -0.76340
O36         O  0.00618696  0.06981790  0.67618604    -0.79830
O37         O  0.14413336  0.19476925  0.61708681    -0.80520
C38         C  0.48032800  0.05467073  0.64336062     0.94740
O39         O  0.09036894  0.08166683  0.67281037    -0.78470
O40         O  0.03940440  0.10772927  0.51633025    -0.83670
C41         C  0.11697802  0.12173797  0.52427123     0.97370
C42         C  0.02285837  0.12820217  0.51574486     1.03280
O43         O  0.11528405  0.15395711  0.52612550    -0.79310
C44         C  0.07353997  0.05039360  0.64762007     1.01580
Fe45       Fe  0.06436947  0.43494551  0.67817396     1.65780
Fe46       Fe  0.04687962  0.45758015  0.57409170     1.73250
Fe47       Fe  0.09471650  0.40828228  0.57786813     1.54420
O48         O  0.14063689  0.42966327  0.62575294    -0.83050
O49         O  0.00538808  0.40188713  0.55259014    -0.81350
O50         O  0.12496829  0.45850315  0.68415424    -0.85550
O51         O  0.05514371  0.37797125  0.68735612    -0.80410
O52         O  0.13217214  0.46178715  0.53913419    -0.82180
O53         O  0.50983317  0.45649573  0.62422976    -0.84930
C54         C  0.05096087  0.35029173  0.65994347     0.95840
C55         C  0.14946146  0.45184094  0.66174287     1.03280
O56         O  0.06916615  0.43306303  0.61096765    -1.13910
O57         O  0.08989135  0.01149467  0.60140494    -0.76340
O58         O  0.07393902  0.49379988  0.67612029    -0.79830
O59         O  0.06110221  0.35605045  0.61670623    -0.80520
C60         C  0.08472984  0.01968569  0.64332390     0.94740
O61         O  0.00145330  0.40954589  0.67266459    -0.78470
O62         O  0.07885048  0.46081305  0.51612136    -0.83670
C63         C  0.01504638  0.38305167  0.52412082     0.97370
C64         C  0.11593068  0.47738948  0.51546211     1.03280
O65         O  0.04901307  0.38484793  0.52586675    -0.79310
C66         C  0.48706039  0.42638544  0.64759692     1.01580
Fe67       Fe  0.12619565  0.05796366  0.32754318     1.65780
Fe68       Fe  0.08598179  0.03543312  0.43172611     1.73250
Fe69       Fe  0.18326048  0.08491937  0.42768647     1.54410
O70         O  0.20787238  0.06361586  0.37974107    -0.83050
O71         O  0.10026376  0.09111997  0.45317665    -0.81350
O72         O  0.16319728  0.03443098  0.32161534    -0.85550
O73         O  0.17401170  0.11497036  0.31818568    -0.80410
O74         O  0.16715215  0.03145588  0.46645256    -0.82180
O75         O  0.05001293  0.03638458  0.38165731    -0.84930
C76         C  0.19732933  0.14277096  0.34559393     0.95840
C77         C  0.19438102  0.04119202  0.34396599     1.03280
O78         O  0.13285940  0.05997529  0.39473021    -1.13910
O79         O  0.07499287  0.48151314  0.40448387    -0.76340
O80         O  0.07682910  0.99909266  0.32975120    -0.79830
O81         O  0.20176406  0.13709075  0.38881149    -0.80520
C82         C  0.06166959  0.47324349  0.36258543     0.94740
O83         O  0.08867939  0.08328341  0.33308342    -0.78470
O84         O  0.11475432  0.03235947  0.48959968    -0.83670
C85         C  0.12875834  0.10994847  0.48164379     0.97370
C86         C  0.13522733  0.01581369  0.49018037     1.03280
O87         O  0.16097500  0.10825810  0.47979196    -0.79310
C88         C  0.05741367  0.06646663  0.35827800     1.01580
Fe89       Fe  0.44239890  0.37361509  0.32755508     1.65780
Fe90       Fe  0.45982968  0.41383651  0.43168084     1.73250
Fe91       Fe  0.41171642  0.31655894  0.42772347     1.54410
O92         O  0.36578799  0.29205778  0.37975549    -0.83050
O93         O  0.50117401  0.39961381  0.45307794    -0.81350
O94         O  0.38180331  0.33664007  0.32145892    -0.85550
O95         O  0.45146129  0.32577096  0.31832370    -0.80410
O96         O  0.37438774  0.33266195  0.46649963    -0.82180
O97         O  0.99695713  0.44981580  0.38162151    -0.84930
C98         C  0.45559384  0.30233013  0.34575962     0.95840
C99         C  0.35711694  0.30555069  0.34385543     1.03280
O100        O  0.43745603  0.36694271  0.39472943    -1.13910
O101        O  0.41694045  0.42472107  0.40440530    -0.76340
O102        O  0.43300373  0.42298102  0.32971099    -0.79830
O103        O  0.44527550  0.29789794  0.38892890    -0.80520
C104        C  0.42217530  0.43807251  0.36251793     0.94740
O105        O  0.00531779  0.41114383  0.33321739    -0.78470
O106        O  0.42781900  0.38508996  0.48959328    -0.83670
C107        C  0.49141554  0.37115149  0.48156577     0.97370
C108        C  0.39073873  0.36455781  0.49025928     1.03280
O109        O  0.45740043  0.33890600  0.47978969    -0.79310
C110        C  0.01972898  0.44244803  0.35833746     1.01580
Fe111      Fe  0.38068496  0.43540797  0.67838418     1.65780
Fe112      Fe  0.42089123  0.45282324  0.57425909     1.73250
Fe113      Fe  0.32362262  0.40473633  0.57821461     1.54420
O114        O  0.29911808  0.35881392  0.62617241    -0.83050
O115        O  0.40668561  0.49418031  0.55285304    -0.81350
O116        O  0.34371135  0.37480822  0.68445397    -0.85550
O117        O  0.33284367  0.44447672  0.68762964    -0.80410
O118        O  0.33970204  0.36738754  0.53943443    -0.82180
O119        O  0.45688937  0.98994917  0.62432919    -0.84930
C120        C  0.30940026  0.44861030  0.66019823     0.95840
C121        C  0.31261746  0.35013129  0.66205444     1.03280
O122        O  0.37400591  0.43046739  0.61120849    -1.13910
O123        O  0.43176318  0.40992191  0.60153428    -0.76340
O124        O  0.43004523  0.42600444  0.67622614    -0.79830
O125        O  0.30497707  0.43830595  0.61702138    -0.80520
C126        C  0.44512596  0.41516532  0.64341801     0.94740
O127        O  0.41821735  0.49833062  0.67273211    -0.78470
O128        O  0.39213920  0.42080784  0.51634449    -0.83670
C129        C  0.37822192  0.48442249  0.52436702     0.97360
C130        C  0.37159296  0.38372478  0.51567693     1.03280
O131        O  0.34597102  0.45041414  0.52615156    -0.79310
C132        C  0.44953144  0.01273070  0.64761323     1.01580
Fe133      Fe  0.23167315  0.45250392  0.34506475     1.65780
Fe134      Fe  0.20908992  0.41227832  0.24088449     1.73250
Fe135      Fe  0.25859994  0.00956630  0.24492836     1.54410
O136        O  0.23731563  0.03418348  0.29289419    -0.83050
O137        O  0.26475444  0.42654551  0.21940511    -0.81350
O138        O  0.20814415  0.48950654  0.35101904    -0.85550
O139        O  0.28869198  0.00032178  0.35440538    -0.80410
O140        O  0.20513334  0.99346498  0.20617814    -0.82180
O141        O  0.21005942  0.37631004  0.29094310    -0.84930
C142        C  0.31648043  0.02363563  0.32698885     0.95840
C143        C  0.21489929  0.02068680  0.32866946     1.03280
O144        O  0.23365558  0.45916359  0.27787929    -1.13910
O145        O  0.15519557  0.40132475  0.26815689    -0.76340
O146        O  0.17280379  0.40313648  0.34287438    -0.79830
O147        O  0.31078284  0.02806857  0.28377708    -0.80520
C148        C  0.14694075  0.38799773  0.31005211     0.94740
O149        O  0.25698431  0.41498344  0.33949250    -0.78470
O150        O  0.20600000  0.44104830  0.18301812    -0.83670
C151        C  0.28357490  0.45504180  0.19094053     0.97360
C152        C  0.18947038  0.46153701  0.18244134     1.03280
O153        O  0.28190744  0.98726732  0.19280667    -0.79310
C154        C  0.24015308  0.38371302  0.31429757     1.01580
Fe155      Fe  0.10856088  0.39067846  0.99443710     1.65780
Fe156      Fe  0.13122308  0.37320602  0.09851203     1.73250
Fe157      Fe  0.08194790  0.42106610  0.09475159     1.54410
O158        O  0.10332947  0.46698745  0.04685647    -0.83050
O159        O  0.07553868  0.33172072  0.12001897    -0.81350
O160        O  0.13211462  0.45128040  0.98843106    -0.85550
O161        O  0.05159204  0.38145352  0.98527678    -0.80410
O162        O  0.13546019  0.45852067  0.13348138    -0.82180
O163        O  0.13012196  0.33614786  0.04837356    -0.84930
C164        C  0.02392792  0.37728956  0.01269389     0.95840
C165        C  0.12547516  0.47579153  0.01084305     1.03280
O166        O  0.10670703  0.39549822  0.06164363    -1.13910
O167        O  0.18512862  0.41619258  0.07118421    -0.76340
O168        O  0.16741016  0.40024531  0.99647543    -0.80000
O169        O  0.02970333  0.38745010  0.05592716    -0.80520
C170        C  0.19330255  0.41102027  0.02926105     0.94740
O171        O  0.08315821  0.32775784  0.99996066    -0.78470
O172        O  0.13446981  0.40518538  0.15648579    -0.83670
C173        C  0.05672037  0.34138847  0.14849945     0.97360
C174        C  0.15105309  0.44226942  0.15715335     1.03280
O175        O  0.05852048  0.37536161  0.14675741    -0.79310
C176        C  0.10000335  0.31336816  0.02502184     1.01580
Fe177      Fe  0.04731685  0.26872119  0.34505133     1.65780
Fe178      Fe  0.08751888  0.28615731  0.24092271     1.73250
Fe179      Fe  0.49025206  0.23804760  0.24488188     1.54410
O180        O  0.46575758  0.19211561  0.29283396    -0.83050
O181        O  0.07330135  0.32751264  0.21953406    -0.81350
O182        O  0.01034756  0.20812061  0.35112116    -0.85550
O183        O  0.49947344  0.27778250  0.35429854    -0.80410
O184        O  0.50634174  0.20071300  0.20609444    -0.82180
O185        O  0.12350124  0.32328178  0.29099105    -0.84930
C186        C  0.47602581  0.28190946  0.32686783     0.95840
C187        C  0.47925680  0.18343816  0.32872131     1.03280
O188        O  0.04063562  0.26378618  0.27787567    -1.13910
O189        O  0.09840222  0.24325890  0.26818327    -0.76340
O190        O  0.09667930  0.25932334  0.34288268    -0.79830
O191        O  0.47159740  0.27160142  0.28369355    -0.80520
C192        C  0.11176222  0.24849302  0.31006811     0.94740
O193        O  0.08484526  0.33164598  0.33941043    -0.78470
O194        O  0.05876604  0.25414464  0.18300600    -0.83670
C195        C  0.04483388  0.31775684  0.19105373     0.97370
C196        C  0.03823171  0.21706041  0.18233742     1.03280
O197        O  0.51259091  0.28373941  0.19282877    -0.79310
C198        C  0.11614323  0.34605592  0.31429052     1.01580
Fe199      Fe  0.10899601  0.20697508  0.99420016     1.65780
Fe200      Fe  0.12646274  0.24719309  0.09833445     1.73250
Fe201      Fe  0.07836544  0.14991415  0.09436421     1.54410
O202        O  0.03242688  0.12540675  0.04642324    -0.83050
O203        O  0.16781763  0.23297706  0.11972038    -0.81350
O204        O  0.04839847  0.17000694  0.98815732    -0.85550
O205        O  0.11805468  0.15912598  0.98492721    -0.80410
O206        O  0.04103890  0.16600423  0.13316454    -0.82180
O207        O  0.16357176  0.28317027  0.04826061    -0.84930
C208        C  0.12221369  0.13569466  0.01235283     0.95840
C209        C  0.02373061  0.13891163  0.01055730     1.03280
O210        O  0.10408716  0.20030134  0.06137721    -1.13910
O211        O  0.08356274  0.25807579  0.07108564    -0.76340
O212        O  0.09960360  0.25634281  0.99638217    -0.79830
O213        O  0.11192176  0.13126981  0.05553234    -0.80520
C214        C  0.08878475  0.27143159  0.02920147     0.94740
O215        O  0.17191521  0.24450426  0.99982482    -0.78470
O216        O  0.09446543  0.21844224  0.15625112    -0.83670
C217        C  0.15806527  0.20450831  0.14819876     0.97360
C218        C  0.05738584  0.19790225  0.15692054     1.03280
O219        O  0.12405552  0.17225921  0.14641557    -0.79310
C220        C  0.18633429  0.27580442  0.02495328     1.01580
Fe221      Fe  0.29278266  0.39132832  0.99418227     1.65780
Fe222      Fe  0.25257187  0.36876038  0.09836255     1.73250
Fe223      Fe  0.34984829  0.41824444  0.09432426     1.54410
O224        O  0.37445703  0.39695583  0.04635322    -0.83050
O225        O  0.26685216  0.42443769  0.11984162    -0.81350
O226        O  0.32978805  0.36779928  0.98821533    -0.85550
O227        O  0.34059659  0.44833775  0.98485616    -0.80410
O228        O  0.33374311  0.36477423  0.13306806    -0.82180
O229        O  0.21660039  0.36972771  0.04830771    -0.84930
C230        C  0.36391771  0.47612496  0.01227680     0.95840
C231        C  0.36097112  0.37455055  0.01056186     1.03280
O232        O  0.29944803  0.39331396  0.06136784    -1.13910
O233        O  0.24160530  0.31485449  0.07108847    -0.76340
O234        O  0.24341644  0.33245568  0.99636876    -0.79830
O235        O  0.36835332  0.47042819  0.05548630    -0.80520
C236        C  0.22827525  0.30659648  0.02919248     0.94740
O237        O  0.25526735  0.41664746  0.99975798    -0.78470
O238        O  0.28134366  0.36567132  0.15622759    -0.83670
C239        C  0.29534890  0.44325741  0.14830847     0.97370
C240        C  0.30182450  0.34913381  0.15680644     1.03280
O241        O  0.32756471  0.44156677  0.14644736    -0.79310
C242        C  0.22400221  0.39982141  0.02495223     1.01580
Fe243      Fe  0.23100295  0.26826524  0.34482651     1.65780
Fe244      Fe  0.21351446  0.29091027  0.24074737     1.73250
Fe245      Fe  0.26136044  0.24162119  0.24451279     1.54420
O246        O  0.30728419  0.26300648  0.29240133    -0.83050
O247        O  0.17202681  0.23521950  0.21923896    -0.81350
O248        O  0.29160216  0.29181717  0.35082358    -0.85550
O249        O  0.22177269  0.21128936  0.35399600    -0.80410
O250        O  0.29880857  0.29512812  0.20577692    -0.82180
O251        O  0.17646971  0.28982412  0.29088679    -0.84930
C252        C  0.21760056  0.18361592  0.32658020     0.95840
C253        C  0.31610126  0.28516502  0.32840935     1.03280
O254        O  0.23580517  0.26639378  0.27761883    -1.13910
O255        O  0.25650685  0.34482242  0.26806950    -0.76340
O256        O  0.24057538  0.32712064  0.34278097    -0.79830
O257        O  0.22775059  0.18938267  0.28334558    -0.80520
C258        C  0.25134489  0.35300740  0.30999156     0.94740
O259        O  0.16808696  0.24286776  0.33931093    -0.78470
O260        O  0.24547928  0.29414294  0.18277348    -0.83670
C261        C  0.18169097  0.21639574  0.19075878     0.97370
C262        C  0.28255864  0.31072072  0.18210235     1.03280
O263        O  0.21565624  0.21818826  0.19250822    -0.79310
C264        C  0.15369559  0.25971100  0.31424767     1.01580
Fe265      Fe  0.39762085  0.10162628  0.01153800     1.65780
Fe266      Fe  0.38017170  0.12428148  0.90744949     1.73250
Fe267      Fe  0.42799775  0.07497554  0.91124806     1.54410
O268        O  0.47389104  0.09633272  0.95915743    -0.83050
O269        O  0.33868861  0.06859421  0.88592837    -0.81350
O270        O  0.45822019  0.12518679  0.01753999    -0.85550
O271        O  0.38838991  0.04464734  0.02070840    -0.80410
O272        O  0.46547400  0.12848225  0.87253659    -0.82180
O273        O  0.34310192  0.12318365  0.95756781    -0.84930
C274        C  0.38420616  0.01697267  0.99328543     0.95840
C275        C  0.48271350  0.11851785  0.99513848     1.03280
O276        O  0.40244069  0.09975533  0.94433482    -1.13910
O277        O  0.42316086  0.17818588  0.93478941    -0.76340
O278        O  0.40718874  0.16048179  0.00949084    -0.79830
O279        O  0.39435974  0.02274050  0.95005467    -0.80520
C280        C  0.41797896  0.18637130  0.97670193     0.94740
O281        O  0.33470733  0.07622601  0.00599935    -0.78470
O282        O  0.41216656  0.12752778  0.84949532    -0.83670
C283        C  0.34835654  0.04975890  0.85747115     0.97370
C284        C  0.44924690  0.14409151  0.84885134     1.03280
O285        O  0.38232281  0.05155877  0.85922765    -0.79310
C286        C  0.32032175  0.09306760  0.98092349     1.01580
Fe287      Fe  0.45954106  0.22464758  0.66091226     1.65780
Fe288      Fe  0.41932074  0.20213336  0.76509519     1.73250
Fe289      Fe  0.01659992  0.25159485  0.76106163     1.54410
O290        O  0.04120350  0.23026437  0.71312415    -0.83050
O291        O  0.43361392  0.25782926  0.78652155    -0.81350
O292        O  0.99654914  0.20111999  0.65497031    -0.85550
O293        O  0.00735317  0.28165259  0.65155613    -0.80410
O294        O  0.00047145  0.19813449  0.79984312    -0.82180
O295        O  0.38335283  0.20307190  0.71502071    -0.84930
C296        C  0.03068328  0.30944855  0.67896064     0.95840
C297        C  0.02772608  0.20786452  0.67732513     1.03280
O298        O  0.46620137  0.22665866  0.72809998    -1.13910
O299        O  0.40833170  0.14820417  0.73786898    -0.76340
O300        O  0.41017870  0.16577726  0.66312804    -0.79830
O301        O  0.03512458  0.30376576  0.72217537    -0.80520
C302        C  0.39502067  0.13993261  0.69596440     0.94740
O303        O  0.42202228  0.24996687  0.66644761    -0.78470
O304        O  0.44808987  0.19907291  0.82297735    -0.83670
C305        C  0.46210117  0.27665126  0.81499941     0.97370
C306        C  0.46854680  0.18251125  0.82356993     1.03280
O307        O  0.99431648  0.27495510  0.81315669    -0.79310
C308        C  0.39075385  0.23315094  0.69163755     1.01580
Fe309      Fe  0.39828505  0.28587001  0.01169520     1.65780
Fe310      Fe  0.37578541  0.24565125  0.90750216     1.73250
Fe311      Fe  0.42525122  0.34294034  0.91156151     1.54410
O312        O  0.40391440  0.36754210  0.95948924    -0.83050
O313        O  0.43147594  0.25994023  0.88608623    -0.81350
O314        O  0.37474694  0.32286743  0.01761282    -0.85550
O315        O  0.45528687  0.33369149  0.02107812    -0.80410
O316        O  0.37180722  0.32682243  0.87276750    -0.82180
O317        O  0.37671730  0.20967957  0.95757810    -0.84930
C318        C  0.48308508  0.35701685  0.99367935     0.95840
C319        C  0.38148917  0.35404407  0.99525839     1.03280
O320        O  0.40031022  0.29253387  0.94450850    -1.13910
O321        O  0.32186018  0.23466653  0.93471273    -0.76340
O322        O  0.33942137  0.23650305  0.00945732    -0.79830
O323        O  0.47740691  0.36145670  0.95046322    -0.80520
C324        C  0.31358130  0.22135261  0.97661353     0.94740
O325        O  0.42360108  0.24834967  0.00617318    -0.78470
O326        O  0.37273293  0.27442886  0.84962417    -0.83670
C327        C  0.45030677  0.28843696  0.85762386     0.97370
C328        C  0.35618002  0.29489482  0.84903661     1.03280
O329        O  0.44861356  0.32065681  0.85947304    -0.79310
C330        C  0.40678808  0.21707913  0.98097616     1.01580
Fe331      Fe  0.21394313  0.10209504  0.01166312     1.65780
Fe332      Fe  0.25415737  0.11948561  0.90754723     1.73250
Fe333      Fe  0.15688802  0.07138793  0.91148800     1.54410
O334        O  0.13238535  0.02546641  0.95946312    -0.83050
O335        O  0.23994808  0.16083741  0.88614777    -0.81350
O336        O  0.17695821  0.04149837  0.01777749    -0.85550
O337        O  0.16610917  0.11116981  0.02088201    -0.80410
O338        O  0.17298463  0.03403944  0.87272114    -0.82180
O339        O  0.29013810  0.15662394  0.95760383    -0.84930
C340        C  0.14265389  0.11528124  0.99344962     0.95840
C341        C  0.14586951  0.01680611  0.99538037     1.03280
O342        O  0.20726718  0.09712807  0.94448992    -1.13910
O343        O  0.26503340  0.07659279  0.93483702    -0.76340
O344        O  0.26329908  0.09268477  0.00952333    -0.79830
O345        O  0.13822289  0.10495716  0.95027816    -0.80520
C346        C  0.27838732  0.08184285  0.97672599     0.94740
O347        O  0.25147773  0.16501755  0.00598059    -0.78470
O348        O  0.22541097  0.08746566  0.84963053    -0.83670
C349        C  0.21149714  0.15108173  0.85764663     0.97370
C350        C  0.20487798  0.05038183  0.84896616     1.03280
O351        O  0.17924598  0.11706987  0.85941681    -0.79310
C352        C  0.28277825  0.17941346  0.98086696     1.01580
Fe353      Fe  0.27576663  0.04030593  0.66088418     1.65780
Fe354      Fe  0.29315427  0.08052337  0.76500722     1.73250
Fe355      Fe  0.24506106  0.48324345  0.76104791     1.54420
O356        O  0.19915228  0.45873093  0.71306583    -0.83050
O357        O  0.33449881  0.06631360  0.78642483    -0.81350
O358        O  0.21515606  0.50332628  0.65478592    -0.85550
O359        O  0.28482034  0.49246332  0.65165703    -0.80410
O360        O  0.20770612  0.49932904  0.79980655    -0.82180
O361        O  0.33029875  0.11650480  0.71496039    -0.84930
C362        C  0.28896362  0.46902958  0.67909408     0.95840
C363        C  0.19047640  0.47222977  0.67717688     1.03280
O364        O  0.27080600  0.03363044  0.72805632    -1.13910
O365        O  0.25026549  0.09139538  0.73770571    -0.76340
O366        O  0.26636595  0.08967098  0.66302516    -0.79830
O367        O  0.27864726  0.46460062  0.72226545    -0.80520
C368        C  0.25552030  0.10475596  0.69582223     0.94740
O369        O  0.33868194  0.07783718  0.66657255    -0.78470
O370        O  0.26112622  0.05177352  0.82291103    -0.83670
C371        C  0.32473957  0.03785339  0.81491375     0.97360
C372        C  0.22404623  0.03122622  0.82356225     1.03280
O373        O  0.29072307  0.50559952  0.81313029    -0.79310
C374        C  0.35308188  0.10913766  0.69169799     1.01580
Fe375      Fe  0.27532129  0.22401021  0.66105511     1.65780
Fe376      Fe  0.29794753  0.20652950  0.76514586     1.73250
Fe377      Fe  0.24866896  0.25438352  0.76134833     1.54420
O378        O  0.27004450  0.30029363  0.71345773    -0.83050
O379        O  0.24225505  0.16504401  0.78664221    -0.81350
O380        O  0.29888809  0.28461520  0.65507399    -0.85550
O381        O  0.21835121  0.21478945  0.65187050    -0.80410
O382        O  0.30216559  0.29184545  0.80007876    -0.82180
O383        O  0.29685547  0.16946817  0.71501385    -0.84930
C384        C  0.19068025  0.21061014  0.67928837     0.95840
C385        C  0.29222578  0.30911391  0.67747875     1.03280
O386        O  0.27344123  0.22881912  0.72825965    -1.13910
O387        O  0.35185972  0.24951719  0.73783294    -0.76340
O388        O  0.33416834  0.23356963  0.66311914    -0.79830
O389        O  0.19644606  0.22076167  0.72252147    -0.80520
C390        C  0.36004945  0.24434551  0.69591760     0.94740
O391        O  0.24991472  0.16108955  0.66656618    -0.78470
O392        O  0.30118701  0.23851969  0.82310722    -0.83670
C393        C  0.22341759  0.17471168  0.81509529     0.97360
C394        C  0.31776294  0.27560448  0.82375819     1.03280
O395        O  0.22523100  0.20868894  0.81334938    -0.79310
C396        C  0.26674741  0.14669456  0.69164092     1.01580
Fe397      Fe  0.44195827  0.55731550  0.32773489     1.65780
Fe398      Fe  0.46461781  0.53985142  0.43181700     1.73250
Fe399      Fe  0.41533074  0.58769822  0.42804041     1.54410
O400        O  0.43670081  0.63360822  0.38014444    -0.83050
O401        O  0.40893697  0.49836640  0.45333712    -0.81350
O402        O  0.46551840  0.61791918  0.32174021    -0.85550
O403        O  0.38498443  0.54808830  0.31856484    -0.80410
O404        O  0.46883636  0.62516199  0.46676826    -0.82180
O405        O  0.46353172  0.00279173  0.38168052    -0.84930
C406        C  0.35731758  0.54391474  0.34598559     0.95840
C407        C  0.45886665  0.64242261  0.34415082     1.03280
O408        O  0.44009634  0.56213292  0.39494162    -1.13910
O409        O  0.01851986  0.58284150  0.40448606    -0.76340
O410        O  0.50080849  0.56688072  0.32977953    -0.79830
O411        O  0.36309287  0.55407180  0.38921902    -0.80520
C412        C  0.02669877  0.57766297  0.36256859     0.94740
O413        O  0.41656976  0.99439809  0.33326075    -0.78470
O414        O  0.46786427  0.57183654  0.48978398    -0.83670
C415        C  0.39011443  0.50803951  0.48180604     0.97360
C416        C  0.48443414  0.60891989  0.49044749     1.03280
O417        O  0.39191057  0.54200876  0.48005046    -0.79310
C418        C  0.43341228  0.98001055  0.35832993     1.01580
Fe419      Fe  0.06503761  0.61918483  0.67838235     1.65780
Fe420      Fe  0.04247198  0.57895875  0.57420139     1.73250
Fe421      Fe  0.09193880  0.67624559  0.57824091     1.54420
O422        O  0.07062728  0.70084898  0.62620353    -0.83050
O423        O  0.09814649  0.59324105  0.55274171    -0.81350
O424        O  0.04150826  0.65618826  0.68435191    -0.85550
O425        O  0.12204209  0.66700244  0.68771325    -0.80410
O426        O  0.03847555  0.66012527  0.53948211    -0.82180
O427        O  0.04343315  0.54298933  0.62426196    -0.84930
C428        C  0.14982262  0.69032887  0.66029695     0.95840
C429        C  0.04823293  0.68736089  0.66200006     1.03280
O430        O  0.06701894  0.62584431  0.61119700    -1.13910
O431        O  0.48856877  0.56799089  0.60146047    -0.76340
O432        O  0.00617059  0.56981832  0.67618615    -0.79830
O433        O  0.14412050  0.69476911  0.61709041    -0.80520
C434        C  0.48031176  0.55467294  0.64336028     0.94740
O435        O  0.09035221  0.58166561  0.67281360    -0.78470
O436        O  0.03938938  0.60772693  0.51633012    -0.83670
C437        C  0.11696309  0.62173500  0.52427289     0.97370
C438        C  0.02284464  0.62820093  0.51574402     1.03280
O439        O  0.11527115  0.65395513  0.52612793    -0.79310
C440        C  0.07352257  0.55039233  0.64762356     1.01580
Fe441      Fe  0.06438847  0.93494782  0.67817031     1.65780
Fe442      Fe  0.04689590  0.95758073  0.57408846     1.73250
Fe443      Fe  0.09473076  0.90828093  0.57786365     1.54420
O444        O  0.14065174  0.92965967  0.62574853    -0.83050
O445        O  0.00540376  0.90188765  0.55258695    -0.81350
O446        O  0.12498705  0.95850511  0.68414693    -0.85550
O447        O  0.05516067  0.87797328  0.68735285    -0.80410
O448        O  0.13218833  0.96178629  0.53912932    -0.82180
O449        O  0.50984912  0.95649549  0.62422760    -0.84930
C450        C  0.05096866  0.85029120  0.65993886     0.95840
C451        C  0.14947858  0.95184035  0.66173611     1.03280
O452        O  0.06918286  0.93306391  0.61096370    -1.13910
O453        O  0.08987454  0.51149372  0.60140895    -0.76340
O454        O  0.07395822  0.99380208  0.67611678    -0.79830
O455        O  0.06111072  0.85604895  0.61670162    -0.80520
C456        C  0.08471192  0.51968409  0.64332779     0.94740
O457        O  0.00147264  0.90954817  0.67266485    -0.78470
O458        O  0.07886691  0.96081358  0.51611791    -0.83670
C459        C  0.01506122  0.88305180  0.52411722     0.97370
C460        C  0.11594719  0.97738982  0.51545827     1.03280
O461        O  0.04902799  0.88484835  0.52586190    -0.79310
C462        C  0.48707792  0.92638587  0.64759727     1.01580
Fe463      Fe  0.12618381  0.55796424  0.32754532     1.65780
Fe464      Fe  0.08596809  0.53543238  0.43172724     1.73250
Fe465      Fe  0.18324703  0.58491660  0.42768988     1.54410
O466        O  0.20785777  0.56361072  0.37974596    -0.83050
O467        O  0.10025020  0.59111911  0.45317733    -0.81350
O468        O  0.16318580  0.53443193  0.32161590    -0.85550
O469        O  0.17400075  0.61497090  0.31818914    -0.80410
O470        O  0.16713587  0.53145330  0.46645633    -0.82180
O471        O  0.04999994  0.53638321  0.38165746    -0.84930
C472        C  0.19732268  0.64276965  0.34559678     0.95840
C473        C  0.19436818  0.54119038  0.34396781     1.03280
O474        O  0.13284660  0.55997464  0.39473239    -1.13910
O475        O  0.07500557  0.98151348  0.40448219    -0.76340
O476        O  0.07681743  0.49909299  0.32975282    -0.79830
O477        O  0.20175598  0.63708838  0.38881439    -0.80520
C478        C  0.06168139  0.97324352  0.36258408     0.94740
O479        O  0.08866715  0.58328377  0.33308611    -0.78470
O480        O  0.11473880  0.53235883  0.48960206    -0.83670
C481        C  0.12874431  0.60994672  0.48164534     0.97370
C482        C  0.13521110  0.51581247  0.49018378     1.03280
O483        O  0.16096124  0.60825671  0.47979372    -0.79310
C484        C  0.05740069  0.56646571  0.35827940     1.01580
Fe485      Fe  0.44240834  0.87361565  0.32755537     1.65780
Fe486      Fe  0.45984290  0.91383642  0.43168171     1.73250
Fe487      Fe  0.41172801  0.81655880  0.42772328     1.54410
O488        O  0.36579794  0.79205735  0.37975596    -0.83050
O489        O  0.50118717  0.89961229  0.45307454    -0.81350
O490        O  0.38181189  0.83663998  0.32146009    -0.85550
O491        O  0.45147029  0.82577213  0.31832255    -0.80410
O492        O  0.37440038  0.83266108  0.46650180    -0.82180
O493        O  0.99696946  0.94981633  0.38162247    -0.84930
C494        C  0.45560425  0.80233213  0.34575809     0.95840
C495        C  0.35712584  0.80554987  0.34385613     1.03280
O496        O  0.43746676  0.86694293  0.39472961    -1.13910
O497        O  0.41695456  0.92472357  0.40440896    -0.76340
O498        O  0.43301395  0.92298147  0.32971326    -0.79830
O499        O  0.44528668  0.79789928  0.38892740    -0.80520
C500        C  0.42218808  0.93807426  0.36252118     0.94740
O501        O  0.00532788  0.91114437  0.33321615    -0.78470
O502        O  0.42783294  0.88508846  0.48959431    -0.83670
C503        C  0.49142914  0.87115064  0.48156303     0.97370
C504        C  0.39075258  0.86455660  0.49026184     1.03280
O505        O  0.45741355  0.83890552  0.47978834    -0.79310
C506        C  0.01974037  0.94244835  0.35833691     1.01580
Fe507      Fe  0.38070104  0.93540589  0.67838848     1.65780
Fe508      Fe  0.42090855  0.95282127  0.57426306     1.73250
Fe509      Fe  0.32363987  0.90473817  0.57821836     1.54420
O510        O  0.29913064  0.85881740  0.62617656    -0.83050
O511        O  0.40670526  0.99417972  0.55285631    -0.81350
O512        O  0.34372210  0.87480584  0.68445909    -0.85550
O513        O  0.33286153  0.94447805  0.68763350    -0.80410
O514        O  0.33971727  0.86738731  0.53943898    -0.82180
O515        O  0.45687164  0.48995201  0.62432511    -0.84930
C516        C  0.30941951  0.94861340  0.66020141     0.95840
C517        C  0.31262531  0.85013242  0.66206070     1.03280
O518        O  0.37402290  0.93046634  0.61121262    -1.13910
O519        O  0.43177840  0.90991873  0.60153769    -0.76340
O520        O  0.43006073  0.92600027  0.67622998    -0.79830
O521        O  0.30499740  0.93831032  0.61702420    -0.80520
C522        C  0.44514241  0.91516305  0.64342073     0.94740
O523        O  0.41823559  0.99832836  0.67273611    -0.78470
O524        O  0.39215559  0.92080672  0.51634895    -0.83670
C525        C  0.37824139  0.98442236  0.52437064     0.97360
C526        C  0.37160815  0.88372384  0.51568118     1.03280
O527        O  0.34599013  0.95041473  0.52615532    -0.79310
C528        C  0.44951391  0.51273314  0.64761044     1.01580
Fe529      Fe  0.23168355  0.95250379  0.34506616     1.65780
Fe530      Fe  0.20910035  0.91227850  0.24088581     1.73250
Fe531      Fe  0.25858747  0.50956612  0.24492673     1.54410
O532        O  0.23730157  0.53418216  0.29289277    -0.83050
O533        O  0.26476473  0.92654522  0.21940734    -0.81350
O534        O  0.20815498  0.98950693  0.35101895    -0.85550
O535        O  0.28868149  0.50032243  0.35440266    -0.80410
O536        O  0.20512071  0.49346348  0.20617788    -0.82180
O537        O  0.21006979  0.87631046  0.29094446    -0.84930
C538        C  0.31646901  0.52363732  0.32698589     0.95840
C539        C  0.21488669  0.52068572  0.32866937     1.03280
O540        O  0.23366645  0.95916366  0.27788066    -1.13910
O541        O  0.15520595  0.90132493  0.26815799    -0.76340
O542        O  0.17281396  0.90313632  0.34287547    -0.79830
O543        O  0.31077067  0.52807034  0.28377442    -0.80520
C544        C  0.14695095  0.88799763  0.31005313     0.94740
O545        O  0.25699455  0.91498328  0.33949427    -0.78470
O546        O  0.20601038  0.94104838  0.18301888    -0.83670
C547        C  0.28358505  0.95504115  0.19094249     0.97360
C548        C  0.18948214  0.96153850  0.18244112     1.03280
O549        O  0.28189631  0.48726761  0.19280483    -0.79310
C550        C  0.24016357  0.88371336  0.31429857     1.01580
Fe551      Fe  0.10856792  0.89067932  0.99443387     1.65780
Fe552      Fe  0.13123350  0.87320885  0.09850854     1.73250
Fe553      Fe  0.08195782  0.92106810  0.09474941     1.54410
O554        O  0.10333799  0.96698862  0.04685380    -0.83050
O555        O  0.07555050  0.83172341  0.12001825    -0.81350
O556        O  0.13212072  0.95128101  0.98842606    -0.85550
O557        O  0.05159809  0.88145336  0.98527437    -0.80410
O558        O  0.13547202  0.95852305  0.13347873    -0.82180
O559        O  0.13013083  0.83615053  0.04836934    -0.84930
C560        C  0.02393435  0.87728959  0.01269216     0.95840
C561        C  0.12548145  0.97579209  0.01083852     1.03280
O562        O  0.10671579  0.89549989  0.06164073    -1.13910
O563        O  0.18513733  0.91619637  0.07117926    -0.76340
O564        O  0.16741798  0.90024647  0.99647131    -0.80000
O565        O  0.02971139  0.88745128  0.05592541    -0.80520
C566        C  0.19331078  0.91102232  0.02925683     0.94740
O567        O  0.08316504  0.82775920  0.99995935    -0.78470
O568        O  0.13448167  0.90518785  0.15648302    -0.83670
C569        C  0.05673235  0.84139160  0.14849844     0.97360
C570        C  0.15106503  0.94227183  0.15715113     1.03280
O571        O  0.05853182  0.87536437  0.14675561    -0.79310
C572        C  0.10001035  0.81337007  0.02502088     1.01580
Fe573      Fe  0.04732423  0.76872039  0.34504999     1.65780
Fe574      Fe  0.08752793  0.78615843  0.24092209     1.73250
Fe575      Fe  0.49026047  0.73805208  0.24487980     1.54410
O576        O  0.46576168  0.69212040  0.29283154    -0.83050
O577        O  0.07331202  0.82751511  0.21953372    -0.81350
O578        O  0.01035133  0.70811947  0.35111794    -0.85550
O579        O  0.49948218  0.77778327  0.35429640    -0.80410
O580        O  0.50634711  0.70071592  0.20609318    -0.82180
O581        O  0.12351080  0.82328179  0.29099072    -0.84930
C582        C  0.47603623  0.78191266  0.32686553     0.95840
C583        C  0.47925821  0.68344011  0.32871894     1.03280
O584        O  0.04064410  0.76378739  0.27787434    -1.13910
O585        O  0.09841091  0.74325945  0.26818205    -0.76340
O586        O  0.09668565  0.75932105  0.34288208    -0.79830
O587        O  0.47160908  0.77160759  0.28369057    -0.80520
C588        C  0.11177006  0.74849266  0.31006734     0.94740
O589        O  0.08485499  0.83164543  0.33941101    -0.78470
O590        O  0.05877364  0.75414656  0.18300597    -0.83670
C591        C  0.04484519  0.81776026  0.19105266     0.97370
C592        C  0.03823747  0.71706251  0.18233719     1.03280
O593        O  0.51260164  0.78374356  0.19282708    -0.79310
C594        C  0.11615313  0.84605566  0.31429118     1.01580
Fe595      Fe  0.10899773  0.70697503  0.99420143     1.65780
Fe596      Fe  0.12646709  0.74719317  0.09833588     1.73250
Fe597      Fe  0.07836555  0.64991424  0.09436562     1.54410
O598        O  0.03242588  0.62540759  0.04642354    -0.83050
O599        O  0.16782087  0.73297493  0.11972084    -0.81350
O600        O  0.04839944  0.67000700  0.98815645    -0.85550
O601        O  0.11805494  0.65912573  0.98493037    -0.80410
O602        O  0.04104067  0.66600536  0.13316499    -0.82180
O603        O  0.16357658  0.78317076  0.04826267    -0.84930
C604        C  0.12221300  0.63569440  0.01235675     0.95840
C605        C  0.02373041  0.63891165  0.01055577     1.03280
O606        O  0.10408878  0.70030150  0.06137835    -1.13910
O607        O  0.08356892  0.75807890  0.07108768    -0.76340
O608        O  0.09960689  0.75634307  0.99638337    -0.79830
O609        O  0.11192048  0.63126913  0.05553564    -0.80520
C610        C  0.08879024  0.77143350  0.02920286     0.94740
O611        O  0.17191765  0.74450375  0.99982604    -0.78470
O612        O  0.09446921  0.71844124  0.15625159    -0.83670
C613        C  0.15806780  0.70450667  0.14820018     0.97360
C614        C  0.05738953  0.69790307  0.15692089     1.03280
O615        O  0.12405686  0.67225844  0.14641758    -0.79310
C616        C  0.18633806  0.77580434  0.02495408     1.01580
Fe617      Fe  0.29278939  0.89132752  0.99418348     1.65780
Fe618      Fe  0.25257868  0.86876008  0.09836338     1.73250
Fe619      Fe  0.34985520  0.91824357  0.09432559     1.54410
O620        O  0.37446432  0.89695719  0.04635401    -0.83050
O621        O  0.26686090  0.92443764  0.11984354    -0.81350
O622        O  0.32979329  0.86779737  0.98821878    -0.85550
O623        O  0.34060417  0.94833693  0.98485795    -0.80410
O624        O  0.33375001  0.86477240  0.13306831    -0.82180
O625        O  0.21660755  0.86972971  0.04830886    -0.84930
C626        C  0.36392343  0.97612476  0.01227925     0.95840
C627        C  0.36097698  0.87455008  0.01056465     1.03280
O628        O  0.29945471  0.89331322  0.06136904    -1.13910
O629        O  0.24161002  0.81485360  0.07108865    -0.76340
O630        O  0.24342165  0.83245520  0.99636922    -0.79830
O631        O  0.36835891  0.97042801  0.05548885    -0.80520
C632        C  0.22827963  0.80659591  0.02919282     0.94740
O633        O  0.25527534  0.91664763  0.99975706    -0.78470
O634        O  0.28135004  0.86566878  0.15622793    -0.83670
C635        C  0.29535776  0.94325634  0.14831054     0.97370
C636        C  0.30183114  0.84913142  0.15680655     1.03280
O637        O  0.32757273  0.94156459  0.14644961    -0.79310
C638        C  0.22400984  0.89982243  0.02495061     1.01580
Fe639      Fe  0.23101107  0.76826578  0.34482852     1.65780
Fe640      Fe  0.21352198  0.79091022  0.24074872     1.73250
Fe641      Fe  0.26136494  0.74161844  0.24451470     1.54420
O642        O  0.30729028  0.76300358  0.29240335    -0.83050
O643        O  0.17203213  0.73521998  0.21924005    -0.81350
O644        O  0.29161059  0.79181662  0.35082498    -0.85550
O645        O  0.22177835  0.71128965  0.35399932    -0.80410
O646        O  0.29881464  0.79512488  0.20577746    -0.82180
O647        O  0.17647837  0.78982538  0.29088877    -0.84930
C648        C  0.21760084  0.68361463  0.32658304     0.95840
C649        C  0.31610906  0.78516352  0.32841068     1.03280
O650        O  0.23581193  0.76639312  0.27762051    -1.13910
O651        O  0.25651612  0.84482182  0.26807056    -0.76340
O652        O  0.24058521  0.82712132  0.34278239    -0.79830
O653        O  0.22775160  0.68938055  0.28334851    -0.80520
C654        C  0.25135492  0.85300758  0.30999258     0.94740
O655        O  0.16809506  0.74286917  0.33931317    -0.78470
O656        O  0.24548589  0.79414095  0.18277465    -0.83670
C657        C  0.18169473  0.71639468  0.19076025     0.97370
C658        C  0.28256520  0.81071816  0.18210295     1.03280
O659        O  0.21565961  0.71818602  0.19250993    -0.79310
C660        C  0.15370376  0.75971173  0.31424860     1.01580
Fe661      Fe  0.39761907  0.60162608  0.01153560     1.65780
Fe662      Fe  0.38016631  0.62427965  0.90744736     1.73250
Fe663      Fe  0.42799324  0.57497477  0.91124408     1.54410
O664        O  0.47388993  0.59633466  0.95915182    -0.83050
O665        O  0.33868177  0.56859202  0.88592825    -0.81350
O666        O  0.45821873  0.62518542  0.01753770    -0.85550
O667        O  0.38838671  0.54464728  0.02070604    -0.80410
O668        O  0.46546731  0.62848078  0.87253056    -0.82180
O669        O  0.34309927  0.62318405  0.95756759    -0.84930
C670        C  0.38420223  0.51697258  0.99328295     0.95840
C671        C  0.48271259  0.61851792  0.99513507     1.03280
O672        O  0.40243691  0.59975446  0.94433204    -1.13910
O673        O  0.42315718  0.67818409  0.93478497    -0.76340
O674        O  0.40718869  0.66048155  0.00948768    -0.79830
O675        O  0.39435647  0.52274029  0.95005236    -0.80520
C676        C  0.41797799  0.68637034  0.97669823     0.94740
O677        O  0.33470529  0.57622664  0.00599874    -0.78470
O678        O  0.41215830  0.62752389  0.84949155    -0.83670
C679        C  0.34834868  0.54975648  0.85747003     0.97370
C680        C  0.44923858  0.64408871  0.84884596     1.03280
O681        O  0.38231514  0.55155618  0.85922546    -0.79310
C682        C  0.32031930  0.59306807  0.98092329     1.01580
Fe683      Fe  0.45952917  0.72464872  0.66090857     1.65780
Fe684      Fe  0.41931045  0.70213198  0.76509160     1.73250
Fe685      Fe  0.01658997  0.75159231  0.76105665     1.54410
O686        O  0.04119079  0.73026209  0.71311860    -0.83050
O687        O  0.43360529  0.75782757  0.78651992    -0.81350
O688        O  0.99653560  0.70111960  0.65496486    -0.85550
O689        O  0.00734438  0.78165373  0.65155294    -0.80410
O690        O  0.00046053  0.69813145  0.79983641    -0.82180
O691        O  0.38334234  0.70307224  0.71501885    -0.84930
C692        C  0.03068058  0.80944771  0.67895621     0.95840
C693        C  0.02771231  0.70786316  0.67731955     1.03280
O694        O  0.46619078  0.72665825  0.72809587    -1.13910
O695        O  0.40832001  0.64820307  0.73786317    -0.76340
O696        O  0.41016457  0.66577814  0.66312362    -0.79830
O697        O  0.03511956  0.80376392  0.72217125    -0.80520
C698        C  0.39500708  0.63993247  0.69595935     0.94740
O699        O  0.42201140  0.74996902  0.66644722    -0.78470
O700        O  0.44807901  0.69906908  0.82297287    -0.83670
C701        C  0.46209354  0.77664884  0.81499675     0.97370
C702        C  0.46853658  0.68250807  0.82356421     1.03280
O703        O  0.99430858  0.77495259  0.81315234    -0.79310
C704        C  0.39074288  0.73315171  0.69163703     1.01580
Fe705      Fe  0.39828893  0.78586953  0.01169718     1.65780
Fe706      Fe  0.37578204  0.74565028  0.90750494     1.73250
Fe707      Fe  0.42525195  0.84293937  0.91156329     1.54410
O708        O  0.40391954  0.86754225  0.95949307    -0.83050
O709        O  0.43147052  0.75993716  0.88608414    -0.81350
O710        O  0.37475211  0.82286732  0.01761656    -0.85550
O711        O  0.45529234  0.83369084  0.02107804    -0.80410
O712        O  0.37180542  0.82682216  0.87277235    -0.82180
O713        O  0.37671616  0.70967939  0.95758012    -0.84930
C714        C  0.48309012  0.85701603  0.99367850     0.95840
C715        C  0.38149463  0.85404395  0.99526209     1.03280
O716        O  0.40031107  0.79253318  0.94451049    -1.13910
O717        O  0.32185906  0.73466824  0.93472007    -0.76340
O718        O  0.33942380  0.73650252  0.00946252    -0.79830
O719        O  0.47741023  0.86145520  0.95046239    -0.80520
C720        C  0.31358167  0.72135325  0.97662043     0.94740
O721        O  0.42360370  0.74834894  0.00617159    -0.78470
O722        O  0.37272677  0.77442674  0.84962739    -0.83670
C723        C  0.45030111  0.78843413  0.85762201     0.97370
C724        C  0.35617547  0.79489423  0.84904137     1.03280
O725        O  0.44860977  0.82065472  0.85947265    -0.79310
C726        C  0.40678861  0.71707869  0.98097456     1.01580
Fe727      Fe  0.21394093  0.60209436  0.01166736     1.65780
Fe728      Fe  0.25415260  0.61948673  0.90755009     1.73250
Fe729      Fe  0.15688334  0.57138829  0.91149372     1.54410
O730        O  0.13238050  0.52546704  0.95946899    -0.83050
O731        O  0.23994177  0.66083855  0.88615321    -0.81350
O732        O  0.17695480  0.54149728  0.01778126    -0.85550
O733        O  0.16610759  0.61116951  0.02088699    -0.80410
O734        O  0.17297815  0.53403976  0.87272674    -0.82180
O735        O  0.29013575  0.65662506  0.95760546    -0.84930
C736        C  0.14265230  0.61528103  0.99345472     0.95840
C737        C  0.14586473  0.51680587  0.99538540     1.03280
O738        O  0.20726349  0.59712820  0.94449444    -1.13910
O739        O  0.26503051  0.57659439  0.93483767    -0.76340
O740        O  0.26329645  0.59268376  0.00952524    -0.79830
O741        O  0.13822039  0.60495728  0.95028361    -0.80520
C742        C  0.27838477  0.58184334  0.97672649     0.94740
O743        O  0.25147703  0.66501738  0.00598653    -0.78470
O744        O  0.22540381  0.58746618  0.84963471    -0.83670
C745        C  0.21149015  0.65108298  0.85765299     0.97370
C746        C  0.20487096  0.55038229  0.84897126     1.03280
O747        O  0.17923988  0.61707038  0.85942275    -0.79310
C748        C  0.28277750  0.67941389  0.98087249     1.01580
Fe749      Fe  0.27574975  0.54030485  0.66088668     1.65780
Fe750      Fe  0.29314351  0.58052231  0.76501033     1.73250
Fe751      Fe  0.24507437  0.98324470  0.76104529     1.54420
O752        O  0.19916880  0.95873067  0.71305948    -0.83050
O753        O  0.33448859  0.56631161  0.78642438    -0.81350
O754        O  0.21517330  0.00332635  0.65477965    -0.85550
O755        O  0.28483860  0.99246515  0.65165782    -0.80410
O756        O  0.20771624  0.99932934  0.79980056    -0.82180
O757        O  0.33028603  0.61650432  0.71496191    -0.84930
C758        C  0.28898237  0.96903255  0.67909625     0.95840
C759        C  0.19049363  0.97222907  0.67716959     1.03280
O760        O  0.27079267  0.53362938  0.72805900    -1.13910
O761        O  0.25025385  0.59139514  0.73771332    -0.76340
O762        O  0.26634953  0.58966957  0.66303097    -0.79830
O763        O  0.27866453  0.96460362  0.72226714    -0.80520
C764        C  0.25550591  0.60475485  0.69582960     0.94740
O765        O  0.33866576  0.57783648  0.66657048    -0.78470
O766        O  0.26111783  0.55177213  0.82291510    -0.83670
C767        C  0.32473010  0.53785115  0.81491294     0.97360
C768        C  0.22403786  0.53122597  0.82356756     1.03280
O769        O  0.29073301  0.00560161  0.81313048    -0.79310
C770        C  0.35306753  0.60913747  0.69169545     1.01580
Fe771      Fe  0.27530811  0.72400758  0.66106009     1.65780
Fe772      Fe  0.29793788  0.70652964  0.76514969     1.73250
Fe773      Fe  0.24866163  0.75438589  0.76135375     1.54420
O774        O  0.27004297  0.80029760  0.71346342    -0.83050
O775        O  0.24224618  0.66504509  0.78664801    -0.81350
O776        O  0.29887959  0.78461220  0.65507822    -0.85550
O777        O  0.21833855  0.71478906  0.65187581    -0.80410
O778        O  0.30215991  0.79184627  0.80008462    -0.82180
O779        O  0.29684290  0.66946753  0.71501704    -0.84930
C780        C  0.19066821  0.71061164  0.67929349     0.95840
C781        C  0.29222512  0.80911500  0.67748519     1.03280
O782        O  0.27343047  0.72881865  0.72826468    -1.13910
O783        O  0.35184921  0.74951704  0.73783417    -0.76340
O784        O  0.33415435  0.73356540  0.66312199    -0.79830
O785        O  0.19643592  0.72076564  0.72252621    -0.80520
C786        C  0.36003747  0.74434450  0.69591848     0.94740
O787        O  0.24989898  0.66108722  0.66657370    -0.78470
O788        O  0.30118006  0.73851999  0.82311233    -0.83670
C789        C  0.22340945  0.67471318  0.81510155     0.97360
C790        C  0.31775712  0.77560485  0.82376372     1.03280
O791        O  0.22522230  0.70869038  0.81335505    -0.79310
C792        C  0.26673279  0.64669304  0.69164761     1.01580
Fe793      Fe  0.94197075  0.05731679  0.32773682     1.65780
Fe794      Fe  0.96463415  0.03985298  0.43181729     1.73250
Fe795      Fe  0.91534221  0.08769536  0.42804428     1.54410
O796        O  0.93670682  0.13360445  0.38014825    -0.83050
O797        O  0.90895520  0.99836654  0.45334007    -0.81350
O798        O  0.96552764  0.11792035  0.32174296    -0.85550
O799        O  0.88499623  0.04808802  0.31856846    -0.80410
O800        O  0.96884833  0.12516107  0.46677056    -0.82180
O801        O  0.96351610  0.50278940  0.38168148    -0.84930
C802        C  0.85732879  0.04391211  0.34598987     0.95840
C803        C  0.95887138  0.14242092  0.34415341     1.03280
O804        O  0.94010991  0.06213304  0.39494381    -1.13910
O805        O  0.51853462  0.08284453  0.40448487    -0.76340
O806        O  0.00082186  0.06688335  0.32977895    -0.79830
O807        O  0.86310370  0.05406662  0.38922409    -0.80520
C808        C  0.52671268  0.07766528  0.36256741     0.94740
O809        O  0.91655600  0.49439650  0.33325886    -0.78470
O810        O  0.96788033  0.07183705  0.48978463    -0.83670
C811        C  0.89013269  0.00803891  0.48180991     0.97360
C812        C  0.98444805  0.10892016  0.49044862     1.03280
O813        O  0.89192644  0.04200689  0.48005441    -0.79310
C814        C  0.93339827  0.48000870  0.35832816     1.01580
Fe815      Fe  0.56505287  0.11918511  0.67838130     1.65780
Fe816      Fe  0.54248798  0.07895985  0.57420010     1.73250
Fe817      Fe  0.59195155  0.17624664  0.57824051     1.54420
O818        O  0.57064055  0.20084990  0.62620618    -0.83050
O819        O  0.59816348  0.09324496  0.55274149    -0.81350
O820        O  0.54152308  0.15618883  0.68435453    -0.85550
O821        O  0.62205602  0.16700249  0.68770988    -0.80410
O822        O  0.53848800  0.16012610  0.53948351    -0.82180
O823        O  0.54345038  0.04299003  0.62425873    -0.84930
C824        C  0.64983575  0.19032820  0.66029266     0.95840
C825        C  0.54824769  0.18736237  0.66200438     1.03280
O826        O  0.56703258  0.12584502  0.61119630    -1.13910
O827        O  0.98858366  0.06798777  0.60146014    -0.76340
O828        O  0.50618696  0.06981790  0.67618604    -0.79830
O829        O  0.64413336  0.19476925  0.61708681    -0.80520
C830        C  0.98032800  0.05467073  0.64336062     0.94740
O831        O  0.59036894  0.08166683  0.67281037    -0.78470
O832        O  0.53940441  0.10772927  0.51633025    -0.83670
C833        C  0.61697803  0.12173798  0.52427123     0.97370
C834        C  0.52285838  0.12820217  0.51574487     1.03280
O835        O  0.61528405  0.15395712  0.52612550    -0.79310
C836        C  0.57353998  0.05039360  0.64762008     1.01580
Fe837      Fe  0.56436946  0.43494551  0.67817396     1.65780
Fe838      Fe  0.54687962  0.45758015  0.57409170     1.73250
Fe839      Fe  0.59471649  0.40828228  0.57786813     1.54420
O840        O  0.64063689  0.42966327  0.62575294    -0.83050
O841        O  0.50538808  0.40188713  0.55259014    -0.81350
O842        O  0.62496829  0.45850315  0.68415424    -0.85550
O843        O  0.55514371  0.37797125  0.68735611    -0.80410
O844        O  0.63217214  0.46178715  0.53913419    -0.82180
O845        O  0.00983317  0.45649573  0.62422976    -0.84930
C846        C  0.55096087  0.35029173  0.65994347     0.95840
C847        C  0.64946146  0.45184094  0.66174287     1.03280
O848        O  0.56916615  0.43306303  0.61096765    -1.13910
O849        O  0.58989135  0.01149467  0.60140494    -0.76340
O850        O  0.57393902  0.49379988  0.67612029    -0.79830
O851        O  0.56110221  0.35605045  0.61670623    -0.80520
C852        C  0.58472984  0.01968569  0.64332390     0.94740
O853        O  0.50145330  0.40954589  0.67266459    -0.78470
O854        O  0.57885047  0.46081305  0.51612136    -0.83670
C855        C  0.51504638  0.38305167  0.52412082     0.97370
C856        C  0.61593068  0.47738948  0.51546211     1.03280
O857        O  0.54901307  0.38484793  0.52586675    -0.79310
C858        C  0.98706040  0.42638544  0.64759692     1.01580
Fe859      Fe  0.62619565  0.05796366  0.32754318     1.65780
Fe860      Fe  0.58598179  0.03543312  0.43172611     1.73250
Fe861      Fe  0.68326049  0.08491938  0.42768647     1.54410
O862        O  0.70787238  0.06361586  0.37974107    -0.83050
O863        O  0.60026377  0.09111998  0.45317666    -0.81350
O864        O  0.66319729  0.03443098  0.32161534    -0.85550
O865        O  0.67401171  0.11497036  0.31818568    -0.80410
O866        O  0.66715215  0.03145589  0.46645256    -0.82180
O867        O  0.55001293  0.03638459  0.38165731    -0.84930
C868        C  0.69732934  0.14277097  0.34559394     0.95840
C869        C  0.69438102  0.04119202  0.34396599     1.03280
O870        O  0.63285941  0.05997530  0.39473021    -1.13910
O871        O  0.57499287  0.48151314  0.40448387    -0.76340
O872        O  0.57682911  0.99909267  0.32975120    -0.79830
O873        O  0.70176407  0.13709075  0.38881149    -0.80520
C874        C  0.56166958  0.47324349  0.36258543     0.94740
O875        O  0.58867940  0.08328341  0.33308342    -0.78470
O876        O  0.61475433  0.03235947  0.48959968    -0.83670
C877        C  0.62875835  0.10994847  0.48164379     0.97370
C878        C  0.63522733  0.01581369  0.49018037     1.03280
O879        O  0.66097500  0.10825811  0.47979196    -0.79310
C880        C  0.55741368  0.06646663  0.35827800     1.01580
Fe881      Fe  0.94239891  0.37361509  0.32755508     1.65780
Fe882      Fe  0.95982968  0.41383651  0.43168084     1.73250
Fe883      Fe  0.91171642  0.31655894  0.42772347     1.54410
O884        O  0.86578799  0.29205779  0.37975549    -0.83050
O885        O  0.00117401  0.39961381  0.45307793    -0.81350
O886        O  0.88180332  0.33664008  0.32145891    -0.85550
O887        O  0.95146130  0.32577096  0.31832370    -0.80410
O888        O  0.87438774  0.33266196  0.46649963    -0.82180
O889        O  0.49695712  0.44981580  0.38162151    -0.84930
C890        C  0.95559384  0.30233013  0.34575962     0.95840
C891        C  0.85711694  0.30555069  0.34385543     1.03280
O892        O  0.93745603  0.36694271  0.39472943    -1.13910
O893        O  0.91694045  0.42472107  0.40440530    -0.76340
O894        O  0.93300373  0.42298102  0.32971099    -0.79830
O895        O  0.94527551  0.29789794  0.38892890    -0.80520
C896        C  0.92217531  0.43807252  0.36251793     0.94740
O897        O  0.50531778  0.41114383  0.33321739    -0.78470
O898        O  0.92781901  0.38508996  0.48959328    -0.83670
C899        C  0.99141554  0.37115150  0.48156577     0.97370
C900        C  0.89073874  0.36455781  0.49025928     1.03280
O901        O  0.95740043  0.33890600  0.47978969    -0.79310
C902        C  0.51972898  0.44244803  0.35833746     1.01580
Fe903      Fe  0.88068496  0.43540797  0.67838418     1.65780
Fe904      Fe  0.92089123  0.45282324  0.57425909     1.73250
Fe905      Fe  0.82362262  0.40473633  0.57821461     1.54420
O906        O  0.79911808  0.35881392  0.62617241    -0.83050
O907        O  0.90668561  0.49418031  0.55285304    -0.81350
O908        O  0.84371135  0.37480822  0.68445397    -0.85550
O909        O  0.83284367  0.44447672  0.68762964    -0.80410
O910        O  0.83970205  0.36738754  0.53943443    -0.82180
O911        O  0.95688936  0.98994917  0.62432918    -0.84930
C912        C  0.80940026  0.44861030  0.66019823     0.95840
C913        C  0.81261746  0.35013129  0.66205444     1.03280
O914        O  0.87400591  0.43046740  0.61120849    -1.13910
O915        O  0.93176318  0.40992191  0.60153428    -0.76340
O916        O  0.93004524  0.42600444  0.67622614    -0.79830
O917        O  0.80497707  0.43830595  0.61702138    -0.80520
C918        C  0.94512596  0.41516532  0.64341801     0.94740
O919        O  0.91821735  0.49833062  0.67273211    -0.78470
O920        O  0.89213920  0.42080785  0.51634449    -0.83670
C921        C  0.87822193  0.48442250  0.52436702     0.97360
C922        C  0.87159296  0.38372478  0.51567693     1.03280
O923        O  0.84597102  0.45041415  0.52615156    -0.79310
C924        C  0.94953144  0.01273070  0.64761323     1.01580
Fe925      Fe  0.73167315  0.45250392  0.34506475     1.65780
Fe926      Fe  0.70908992  0.41227833  0.24088450     1.73250
Fe927      Fe  0.75859993  0.00956630  0.24492836     1.54410
O928        O  0.73731563  0.03418348  0.29289419    -0.83050
O929        O  0.76475445  0.42654551  0.21940511    -0.81350
O930        O  0.70814415  0.48950654  0.35101904    -0.85550
O931        O  0.78869198  0.00032178  0.35440538    -0.80410
O932        O  0.70513333  0.99346497  0.20617814    -0.82180
O933        O  0.71005942  0.37631004  0.29094310    -0.84930
C934        C  0.81648042  0.02363563  0.32698885     0.95840
C935        C  0.71489929  0.02068680  0.32866946     1.03280
O936        O  0.73365558  0.45916359  0.27787929    -1.13910
O937        O  0.65519557  0.40132475  0.26815689    -0.76340
O938        O  0.67280379  0.40313648  0.34287438    -0.79830
O939        O  0.81078283  0.02806856  0.28377708    -0.80520
C940        C  0.64694076  0.38799774  0.31005211     0.94740
O941        O  0.75698432  0.41498344  0.33949250    -0.78470
O942        O  0.70600000  0.44104830  0.18301812    -0.83670
C943        C  0.78357490  0.45504180  0.19094053     0.97360
C944        C  0.68947038  0.46153701  0.18244134     1.03280
O945        O  0.78190744  0.98726732  0.19280667    -0.79310
C946        C  0.74015309  0.38371302  0.31429757     1.01580
Fe947      Fe  0.60856088  0.39067846  0.99443711     1.65780
Fe948      Fe  0.63122309  0.37320602  0.09851204     1.73250
Fe949      Fe  0.58194790  0.42106611  0.09475159     1.54410
O950        O  0.60332948  0.46698745  0.04685647    -0.83050
O951        O  0.57553868  0.33172073  0.12001898    -0.81350
O952        O  0.63211462  0.45128040  0.98843106    -0.85550
O953        O  0.55159204  0.38145352  0.98527678    -0.80410
O954        O  0.63546019  0.45852067  0.13348138    -0.82180
O955        O  0.63012196  0.33614786  0.04837356    -0.84930
C956        C  0.52392792  0.37728956  0.01269389     0.95840
C957        C  0.62547516  0.47579153  0.01084305     1.03280
O958        O  0.60670704  0.39549823  0.06164363    -1.13910
O959        O  0.68512862  0.41619258  0.07118421    -0.76340
O960        O  0.66741016  0.40024531  0.99647543    -0.80000
O961        O  0.52970334  0.38745010  0.05592716    -0.80520
C962        C  0.69330255  0.41102027  0.02926106     0.94740
O963        O  0.58315822  0.32775784  0.99996066    -0.78470
O964        O  0.63446982  0.40518538  0.15648580    -0.83670
C965        C  0.55672038  0.34138848  0.14849945     0.97360
C966        C  0.65105309  0.44226942  0.15715335     1.03280
O967        O  0.55852048  0.37536161  0.14675742    -0.79310
C968        C  0.60000335  0.31336816  0.02502184     1.01580
Fe969      Fe  0.54731685  0.26872120  0.34505134     1.65780
Fe970      Fe  0.58751888  0.28615731  0.24092272     1.73250
Fe971      Fe  0.99025205  0.23804760  0.24488187     1.54410
O972        O  0.96575757  0.19211561  0.29283396    -0.83050
O973        O  0.57330135  0.32751264  0.21953406    -0.81350
O974        O  0.51034757  0.20812062  0.35112116    -0.85550
O975        O  0.99947344  0.27778250  0.35429854    -0.80410
O976        O  0.00634174  0.20071300  0.20609444    -0.82180
O977        O  0.62350125  0.32328178  0.29099105    -0.84930
C978        C  0.97602580  0.28190946  0.32686782     0.95840
C979        C  0.97925680  0.18343816  0.32872130     1.03280
O980        O  0.54063563  0.26378618  0.27787567    -1.13910
O981        O  0.59840223  0.24325891  0.26818328    -0.76340
O982        O  0.59667931  0.25932334  0.34288268    -0.79830
O983        O  0.97159740  0.27160142  0.28369355    -0.80520
C984        C  0.61176223  0.24849302  0.31006812     0.94740
O985        O  0.58484526  0.33164598  0.33941043    -0.78470
O986        O  0.55876604  0.25414464  0.18300600    -0.83670
C987        C  0.54483388  0.31775684  0.19105373     0.97370
C988        C  0.53823171  0.21706041  0.18233743     1.03280
O989        O  0.01259091  0.28373941  0.19282877    -0.79310
C990        C  0.61614323  0.34605592  0.31429052     1.01580
Fe991      Fe  0.60899601  0.20697508  0.99420017     1.65780
Fe992      Fe  0.62646274  0.24719309  0.09833445     1.73250
Fe993      Fe  0.57836544  0.14991415  0.09436421     1.54410
O994        O  0.53242688  0.12540676  0.04642325    -0.83050
O995        O  0.66781763  0.23297706  0.11972038    -0.81350
O996        O  0.54839847  0.17000694  0.98815732    -0.85550
O997        O  0.61805468  0.15912599  0.98492721    -0.80410
O998        O  0.54103890  0.16600423  0.13316455    -0.82180
O999        O  0.66357176  0.28317027  0.04826061    -0.84930
C1000       C  0.62221369  0.13569466  0.01235283     0.95840
C1001       C  0.52373061  0.13891163  0.01055730     1.03280
O1002       O  0.60408716  0.20030134  0.06137721    -1.13910
O1003       O  0.58356274  0.25807580  0.07108564    -0.76340
O1004       O  0.59960361  0.25634281  0.99638217    -0.79830
O1005       O  0.61192176  0.13126982  0.05553234    -0.80520
C1006       C  0.58878476  0.27143160  0.02920147     0.94740
O1007       O  0.67191521  0.24450426  0.99982482    -0.78470
O1008       O  0.59446544  0.21844224  0.15625113    -0.83670
C1009       C  0.65806527  0.20450831  0.14819876     0.97360
C1010       C  0.55738584  0.19790226  0.15692055     1.03280
O1011       O  0.62405553  0.17225921  0.14641557    -0.79310
C1012       C  0.68633429  0.27580442  0.02495329     1.01580
Fe1013     Fe  0.79278267  0.39132832  0.99418227     1.65780
Fe1014     Fe  0.75257187  0.36876038  0.09836255     1.73250
Fe1015     Fe  0.84984829  0.41824444  0.09432426     1.54410
O1016       O  0.87445704  0.39695583  0.04635322    -0.83050
O1017       O  0.76685216  0.42443769  0.11984162    -0.81350
O1018       O  0.82978805  0.36779929  0.98821533    -0.85550
O1019       O  0.84059659  0.44833775  0.98485616    -0.80410
O1020       O  0.83374311  0.36477423  0.13306806    -0.82180
O1021       O  0.71660039  0.36972771  0.04830772    -0.84930
C1022       C  0.86391771  0.47612496  0.01227680     0.95840
C1023       C  0.86097112  0.37455055  0.01056187     1.03280
O1024       O  0.79944803  0.39331396  0.06136784    -1.13910
O1025       O  0.74160530  0.31485449  0.07108848    -0.76340
O1026       O  0.74341644  0.33245568  0.99636876    -0.79830
O1027       O  0.86835332  0.47042820  0.05548630    -0.80520
C1028       C  0.72827525  0.30659648  0.02919248     0.94740
O1029       O  0.75526735  0.41664746  0.99975798    -0.78470
O1030       O  0.78134367  0.36567133  0.15622759    -0.83670
C1031       C  0.79534890  0.44325742  0.14830847     0.97370
C1032       C  0.80182450  0.34913381  0.15680644     1.03280
O1033       O  0.82756471  0.44156678  0.14644736    -0.79310
C1034       C  0.72400221  0.39982141  0.02495223     1.01580
Fe1035     Fe  0.73100295  0.26826525  0.34482652     1.65780
Fe1036     Fe  0.71351446  0.29091027  0.24074737     1.73250
Fe1037     Fe  0.76136045  0.24162119  0.24451280     1.54420
O1038       O  0.80728419  0.26300648  0.29240133    -0.83050
O1039       O  0.67202681  0.23521950  0.21923897    -0.81350
O1040       O  0.79160217  0.29181717  0.35082358    -0.85550
O1041       O  0.72177269  0.21128936  0.35399601    -0.80410
O1042       O  0.79880858  0.29512813  0.20577692    -0.82180
O1043       O  0.67646971  0.28982413  0.29088680    -0.84930
C1044       C  0.71760056  0.18361592  0.32658020     0.95840
C1045       C  0.81610126  0.28516502  0.32840935     1.03280
O1046       O  0.73580518  0.26639379  0.27761883    -1.13910
O1047       O  0.75650685  0.34482243  0.26806950    -0.76340
O1048       O  0.74057538  0.32712064  0.34278097    -0.79830
O1049       O  0.72775060  0.18938267  0.28334559    -0.80520
C1050       C  0.75134490  0.35300740  0.30999156     0.94740
O1051       O  0.66808696  0.24286776  0.33931093    -0.78470
O1052       O  0.74547928  0.29414294  0.18277349    -0.83670
C1053       C  0.68169098  0.21639574  0.19075878     0.97370
C1054       C  0.78255864  0.31072072  0.18210236     1.03280
O1055       O  0.71565624  0.21818826  0.19250822    -0.79310
C1056       C  0.65369560  0.25971100  0.31424767     1.01580
Fe1057     Fe  0.89762085  0.10162628  0.01153800     1.65780
Fe1058     Fe  0.88017170  0.12428148  0.90744949     1.73250
Fe1059     Fe  0.92799775  0.07497554  0.91124806     1.54410
O1060       O  0.97389104  0.09633272  0.95915743    -0.83050
O1061       O  0.83868861  0.06859421  0.88592837    -0.81350
O1062       O  0.95822018  0.12518679  0.01753999    -0.85550
O1063       O  0.88838991  0.04464734  0.02070840    -0.80410
O1064       O  0.96547400  0.12848225  0.87253659    -0.82180
O1065       O  0.84310192  0.12318365  0.95756781    -0.84930
C1066       C  0.88420615  0.01697267  0.99328543     0.95840
C1067       C  0.98271350  0.11851785  0.99513848     1.03280
O1068       O  0.90244069  0.09975533  0.94433482    -1.13910
O1069       O  0.92316086  0.17818588  0.93478942    -0.76340
O1070       O  0.90718874  0.16048179  0.00949084    -0.79830
O1071       O  0.89435974  0.02274050  0.95005467    -0.80520
C1072       C  0.91797895  0.18637130  0.97670193     0.94740
O1073       O  0.83470733  0.07622601  0.00599935    -0.78470
O1074       O  0.91216656  0.12752778  0.84949532    -0.83670
C1075       C  0.84835654  0.04975890  0.85747115     0.97370
C1076       C  0.94924690  0.14409151  0.84885134     1.03280
O1077       O  0.88232281  0.05155877  0.85922765    -0.79310
C1078       C  0.82032175  0.09306760  0.98092349     1.01580
Fe1079     Fe  0.95954106  0.22464758  0.66091226     1.65780
Fe1080     Fe  0.91932074  0.20213336  0.76509519     1.73250
Fe1081     Fe  0.51659992  0.25159485  0.76106163     1.54410
O1082       O  0.54120350  0.23026437  0.71312415    -0.83050
O1083       O  0.93361392  0.25782926  0.78652156    -0.81350
O1084       O  0.49654915  0.20111998  0.65497031    -0.85550
O1085       O  0.50735317  0.28165259  0.65155613    -0.80410
O1086       O  0.50047145  0.19813449  0.79984312    -0.82180
O1087       O  0.88335283  0.20307190  0.71502071    -0.84930
C1088       C  0.53068328  0.30944855  0.67896064     0.95840
C1089       C  0.52772608  0.20786452  0.67732513     1.03280
O1090       O  0.96620137  0.22665866  0.72809998    -1.13910
O1091       O  0.90833170  0.14820417  0.73786898    -0.76340
O1092       O  0.91017870  0.16577726  0.66312804    -0.79830
O1093       O  0.53512458  0.30376576  0.72217537    -0.80520
C1094       C  0.89502067  0.13993261  0.69596440     0.94740
O1095       O  0.92202228  0.24996687  0.66644761    -0.78470
O1096       O  0.94808987  0.19907291  0.82297735    -0.83670
C1097       C  0.96210117  0.27665126  0.81499941     0.97370
C1098       C  0.96854680  0.18251125  0.82356993     1.03280
O1099       O  0.49431648  0.27495510  0.81315669    -0.79310
C1100       C  0.89075386  0.23315094  0.69163755     1.01580
Fe1101     Fe  0.89828505  0.28587001  0.01169520     1.65780
Fe1102     Fe  0.87578541  0.24565125  0.90750216     1.73250
Fe1103     Fe  0.92525122  0.34294034  0.91156151     1.54410
O1104       O  0.90391440  0.36754210  0.95948925    -0.83050
O1105       O  0.93147594  0.25994023  0.88608623    -0.81350
O1106       O  0.87474694  0.32286743  0.01761282    -0.85550
O1107       O  0.95528687  0.33369149  0.02107812    -0.80410
O1108       O  0.87180722  0.32682243  0.87276750    -0.82180
O1109       O  0.87671730  0.20967957  0.95757810    -0.84930
C1110       C  0.98308508  0.35701685  0.99367935     0.95840
C1111       C  0.88148917  0.35404407  0.99525839     1.03280
O1112       O  0.90031022  0.29253387  0.94450850    -1.13910
O1113       O  0.82186018  0.23466653  0.93471274    -0.76340
O1114       O  0.83942136  0.23650305  0.00945732    -0.79830
O1115       O  0.97740691  0.36145670  0.95046322    -0.80520
C1116       C  0.81358130  0.22135261  0.97661353     0.94740
O1117       O  0.92360108  0.24834967  0.00617318    -0.78470
O1118       O  0.87273293  0.27442886  0.84962417    -0.83670
C1119       C  0.95030677  0.28843696  0.85762386     0.97370
C1120       C  0.85618002  0.29489482  0.84903661     1.03280
O1121       O  0.94861356  0.32065681  0.85947304    -0.79310
C1122       C  0.90678808  0.21707913  0.98097616     1.01580
Fe1123     Fe  0.71394313  0.10209504  0.01166312     1.65780
Fe1124     Fe  0.75415737  0.11948561  0.90754723     1.73250
Fe1125     Fe  0.65688802  0.07138793  0.91148800     1.54410
O1126       O  0.63238535  0.02546641  0.95946312    -0.83050
O1127       O  0.73994808  0.16083741  0.88614777    -0.81350
O1128       O  0.67695821  0.04149837  0.01777749    -0.85550
O1129       O  0.66610917  0.11116981  0.02088201    -0.80410
O1130       O  0.67298463  0.03403944  0.87272114    -0.82180
O1131       O  0.79013809  0.15662394  0.95760383    -0.84930
C1132       C  0.64265389  0.11528124  0.99344962     0.95840
C1133       C  0.64586951  0.01680611  0.99538037     1.03280
O1134       O  0.70726718  0.09712807  0.94448992    -1.13910
O1135       O  0.76503340  0.07659279  0.93483702    -0.76340
O1136       O  0.76329908  0.09268477  0.00952333    -0.79830
O1137       O  0.63822289  0.10495716  0.95027817    -0.80520
C1138       C  0.77838732  0.08184285  0.97672599     0.94740
O1139       O  0.75147773  0.16501755  0.00598059    -0.78470
O1140       O  0.72541097  0.08746566  0.84963053    -0.83670
C1141       C  0.71149714  0.15108173  0.85764663     0.97370
C1142       C  0.70487798  0.05038184  0.84896616     1.03280
O1143       O  0.67924598  0.11706987  0.85941681    -0.79310
C1144       C  0.78277825  0.17941346  0.98086697     1.01580
Fe1145     Fe  0.77576663  0.04030593  0.66088418     1.65780
Fe1146     Fe  0.79315427  0.08052337  0.76500722     1.73250
Fe1147     Fe  0.74506106  0.48324345  0.76104791     1.54420
O1148       O  0.69915228  0.45873093  0.71306583    -0.83050
O1149       O  0.83449881  0.06631360  0.78642483    -0.81350
O1150       O  0.71515606  0.50332628  0.65478592    -0.85550
O1151       O  0.78482034  0.49246332  0.65165703    -0.80410
O1152       O  0.70770612  0.49932904  0.79980656    -0.82180
O1153       O  0.83029875  0.11650480  0.71496039    -0.84930
C1154       C  0.78896362  0.46902958  0.67909408     0.95840
C1155       C  0.69047640  0.47222977  0.67717688     1.03280
O1156       O  0.77080600  0.03363044  0.72805632    -1.13910
O1157       O  0.75026549  0.09139538  0.73770571    -0.76340
O1158       O  0.76636595  0.08967098  0.66302516    -0.79830
O1159       O  0.77864726  0.46460062  0.72226545    -0.80520
C1160       C  0.75552030  0.10475596  0.69582223     0.94740
O1161       O  0.83868194  0.07783718  0.66657255    -0.78470
O1162       O  0.76112622  0.05177352  0.82291103    -0.83670
C1163       C  0.82473957  0.03785339  0.81491375     0.97360
C1164       C  0.72404623  0.03122622  0.82356225     1.03280
O1165       O  0.79072307  0.50559952  0.81313029    -0.79310
C1166       C  0.85308188  0.10913766  0.69169799     1.01580
Fe1167     Fe  0.77532129  0.22401021  0.66105511     1.65780
Fe1168     Fe  0.79794753  0.20652950  0.76514586     1.73250
Fe1169     Fe  0.74866896  0.25438352  0.76134833     1.54420
O1170       O  0.77004451  0.30029364  0.71345773    -0.83050
O1171       O  0.74225505  0.16504401  0.78664221    -0.81350
O1172       O  0.79888809  0.28461520  0.65507399    -0.85550
O1173       O  0.71835121  0.21478945  0.65187051    -0.80410
O1174       O  0.80216559  0.29184545  0.80007877    -0.82180
O1175       O  0.79685547  0.16946817  0.71501385    -0.84930
C1176       C  0.69068025  0.21061014  0.67928837     0.95840
C1177       C  0.79222579  0.30911391  0.67747876     1.03280
O1178       O  0.77344123  0.22881912  0.72825965    -1.13910
O1179       O  0.85185972  0.24951719  0.73783294    -0.76340
O1180       O  0.83416834  0.23356963  0.66311914    -0.79830
O1181       O  0.69644606  0.22076167  0.72252147    -0.80520
C1182       C  0.86004945  0.24434551  0.69591761     0.94740
O1183       O  0.74991473  0.16108955  0.66656618    -0.78470
O1184       O  0.80118701  0.23851969  0.82310723    -0.83670
C1185       C  0.72341759  0.17471168  0.81509529     0.97360
C1186       C  0.81776294  0.27560448  0.82375819     1.03280
O1187       O  0.72523100  0.20868894  0.81334939    -0.79310
C1188       C  0.76674741  0.14669456  0.69164092     1.01580
Fe1189     Fe  0.94195827  0.55731550  0.32773489     1.65780
Fe1190     Fe  0.96461781  0.53985142  0.43181700     1.73250
Fe1191     Fe  0.91533074  0.58769822  0.42804041     1.54410
O1192       O  0.93670082  0.63360823  0.38014444    -0.83050
O1193       O  0.90893697  0.49836640  0.45333712    -0.81350
O1194       O  0.96551841  0.61791919  0.32174021    -0.85550
O1195       O  0.88498443  0.54808830  0.31856485    -0.80410
O1196       O  0.96883637  0.62516199  0.46676826    -0.82180
O1197       O  0.96353172  0.00279172  0.38168052    -0.84930
C1198       C  0.85731758  0.54391475  0.34598559     0.95840
C1199       C  0.95886665  0.64242262  0.34415083     1.03280
O1200       O  0.94009635  0.56213292  0.39494162    -1.13910
O1201       O  0.51851985  0.58284150  0.40448606    -0.76340
O1202       O  0.00080849  0.56688073  0.32977953    -0.79830
O1203       O  0.86309287  0.55407181  0.38921902    -0.80520
C1204       C  0.52669877  0.57766297  0.36256859     0.94740
O1205       O  0.91656975  0.99439809  0.33326075    -0.78470
O1206       O  0.96786427  0.57183654  0.48978398    -0.83670
C1207       C  0.89011443  0.50803952  0.48180604     0.97360
C1208       C  0.98443415  0.60891989  0.49044749     1.03280
O1209       O  0.89191058  0.54200876  0.48005046    -0.79310
C1210       C  0.93341228  0.98001054  0.35832993     1.01580
Fe1211     Fe  0.56503760  0.61918483  0.67838235     1.65780
Fe1212     Fe  0.54247198  0.57895875  0.57420139     1.73250
Fe1213     Fe  0.59193880  0.67624559  0.57824091     1.54420
O1214       O  0.57062728  0.70084897  0.62620353    -0.83050
O1215       O  0.59814649  0.59324105  0.55274171    -0.81350
O1216       O  0.54150825  0.65618826  0.68435191    -0.85550
O1217       O  0.62204209  0.66700243  0.68771325    -0.80410
O1218       O  0.53847555  0.66012527  0.53948211    -0.82180
O1219       O  0.54343314  0.54298933  0.62426196    -0.84930
C1220       C  0.64982262  0.69032886  0.66029695     0.95840
C1221       C  0.54823293  0.68736089  0.66200007     1.03280
O1222       O  0.56701894  0.62584430  0.61119700    -1.13910
O1223       O  0.98856877  0.56799090  0.60146046    -0.76340
O1224       O  0.50617059  0.56981832  0.67618615    -0.79830
O1225       O  0.64412050  0.69476910  0.61709041    -0.80520
C1226       C  0.98031176  0.55467294  0.64336028     0.94740
O1227       O  0.59035221  0.58166561  0.67281360    -0.78470
O1228       O  0.53938938  0.60772693  0.51633012    -0.83670
C1229       C  0.61696309  0.62173500  0.52427289     0.97370
C1230       C  0.52284464  0.62820093  0.51574402     1.03280
O1231       O  0.61527115  0.65395513  0.52612793    -0.79310
C1232       C  0.57352257  0.55039232  0.64762356     1.01580
Fe1233     Fe  0.56438847  0.93494782  0.67817031     1.65780
Fe1234     Fe  0.54689590  0.95758073  0.57408846     1.73250
Fe1235     Fe  0.59473076  0.90828093  0.57786365     1.54420
O1236       O  0.64065174  0.92965967  0.62574853    -0.83050
O1237       O  0.50540376  0.90188765  0.55258695    -0.81350
O1238       O  0.62498705  0.95850511  0.68414693    -0.85550
O1239       O  0.55516067  0.87797328  0.68735285    -0.80410
O1240       O  0.63218834  0.96178629  0.53912932    -0.82180
O1241       O  0.00984912  0.95649549  0.62422759    -0.84930
C1242       C  0.55096866  0.85029120  0.65993886     0.95840
C1243       C  0.64947858  0.95184035  0.66173611     1.03280
O1244       O  0.56918286  0.93306392  0.61096370    -1.13910
O1245       O  0.58987454  0.51149372  0.60140895    -0.76340
O1246       O  0.57395822  0.99380208  0.67611678    -0.79830
O1247       O  0.56111072  0.85604895  0.61670162    -0.80520
C1248       C  0.58471192  0.51968409  0.64332779     0.94740
O1249       O  0.50147264  0.90954817  0.67266485    -0.78470
O1250       O  0.57886692  0.96081358  0.51611791    -0.83670
C1251       C  0.51506123  0.88305180  0.52411722     0.97370
C1252       C  0.61594719  0.97738982  0.51545827     1.03280
O1253       O  0.54902800  0.88484835  0.52586190    -0.79310
C1254       C  0.98707791  0.92638587  0.64759727     1.01580
Fe1255     Fe  0.62618380  0.55796424  0.32754532     1.65780
Fe1256     Fe  0.58596809  0.53543237  0.43172724     1.73250
Fe1257     Fe  0.68324703  0.58491660  0.42768988     1.54410
O1258       O  0.70785777  0.56361072  0.37974596    -0.83050
O1259       O  0.60025019  0.59111910  0.45317732    -0.81350
O1260       O  0.66318579  0.53443192  0.32161590    -0.85550
O1261       O  0.67400075  0.61497090  0.31818914    -0.80410
O1262       O  0.66713587  0.53145330  0.46645633    -0.82180
O1263       O  0.54999994  0.53638321  0.38165746    -0.84930
C1264       C  0.69732267  0.64276965  0.34559678     0.95840
C1265       C  0.69436818  0.54119038  0.34396781     1.03280
O1266       O  0.63284660  0.55997464  0.39473239    -1.13910
O1267       O  0.57500558  0.98151349  0.40448219    -0.76340
O1268       O  0.57681742  0.49909299  0.32975282    -0.79830
O1269       O  0.70175598  0.63708837  0.38881439    -0.80520
C1270       C  0.56168140  0.97324352  0.36258407     0.94740
O1271       O  0.58866715  0.58328377  0.33308611    -0.78470
O1272       O  0.61473879  0.53235883  0.48960206    -0.83670
C1273       C  0.62874431  0.60994672  0.48164534     0.97370
C1274       C  0.63521109  0.51581247  0.49018377     1.03280
O1275       O  0.66096124  0.60825671  0.47979372    -0.79310
C1276       C  0.55740069  0.56646570  0.35827940     1.01580
Fe1277     Fe  0.94240833  0.87361565  0.32755537     1.65780
Fe1278     Fe  0.95984289  0.91383641  0.43168171     1.73250
Fe1279     Fe  0.91172801  0.81655880  0.42772328     1.54410
O1280       O  0.86579794  0.79205735  0.37975596    -0.83050
O1281       O  0.00118716  0.89961229  0.45307455    -0.81350
O1282       O  0.88181188  0.83663997  0.32146009    -0.85550
O1283       O  0.95147029  0.82577212  0.31832255    -0.80410
O1284       O  0.87440037  0.83266108  0.46650180    -0.82180
O1285       O  0.49696946  0.94981633  0.38162248    -0.84930
C1286       C  0.95560425  0.80233213  0.34575809     0.95840
C1287       C  0.85712583  0.80554987  0.34385613     1.03280
O1288       O  0.93746675  0.86694292  0.39472961    -1.13910
O1289       O  0.91695456  0.92472356  0.40440896    -0.76340
O1290       O  0.93301394  0.92298147  0.32971326    -0.79830
O1291       O  0.94528668  0.79789928  0.38892741    -0.80520
C1292       C  0.92218807  0.93807425  0.36252117     0.94740
O1293       O  0.50532789  0.91114437  0.33321615    -0.78470
O1294       O  0.92783294  0.88508846  0.48959431    -0.83670
C1295       C  0.99142914  0.87115064  0.48156303     0.97370
C1296       C  0.89075257  0.86455659  0.49026184     1.03280
O1297       O  0.95741354  0.83890552  0.47978834    -0.79310
C1298       C  0.51974037  0.94244836  0.35833691     1.01580
Fe1299     Fe  0.88070104  0.93540589  0.67838848     1.65780
Fe1300     Fe  0.92090855  0.95282127  0.57426306     1.73250
Fe1301     Fe  0.82363987  0.90473817  0.57821836     1.54420
O1302       O  0.79913064  0.85881739  0.62617656    -0.83050
O1303       O  0.90670525  0.99417971  0.55285630    -0.81350
O1304       O  0.84372210  0.87480584  0.68445909    -0.85550
O1305       O  0.83286153  0.94447805  0.68763350    -0.80410
O1306       O  0.83971727  0.86738731  0.53943898    -0.82180
O1307       O  0.95687165  0.48995201  0.62432511    -0.84930
C1308       C  0.80941951  0.94861340  0.66020141     0.95840
C1309       C  0.81262531  0.85013242  0.66206070     1.03280
O1310       O  0.87402290  0.93046634  0.61121262    -1.13910
O1311       O  0.93177840  0.90991873  0.60153769    -0.76340
O1312       O  0.93006073  0.92600027  0.67622998    -0.79830
O1313       O  0.80499740  0.93831032  0.61702420    -0.80520
C1314       C  0.94514240  0.91516305  0.64342073     0.94740
O1315       O  0.91823559  0.99832836  0.67273611    -0.78470
O1316       O  0.89215559  0.92080672  0.51634895    -0.83670
C1317       C  0.87824139  0.98442236  0.52437064     0.97360
C1318       C  0.87160814  0.88372384  0.51568118     1.03280
O1319       O  0.84599013  0.95041473  0.52615532    -0.79310
C1320       C  0.94951392  0.51273315  0.64761044     1.01580
Fe1321     Fe  0.73168354  0.95250379  0.34506615     1.65780
Fe1322     Fe  0.70910035  0.91227850  0.24088581     1.73250
Fe1323     Fe  0.75858747  0.50956613  0.24492673     1.54410
O1324       O  0.73730157  0.53418216  0.29289277    -0.83050
O1325       O  0.76476472  0.92654522  0.21940734    -0.81350
O1326       O  0.70815498  0.98950692  0.35101895    -0.85550
O1327       O  0.78868149  0.50032244  0.35440266    -0.80410
O1328       O  0.70512071  0.49346349  0.20617788    -0.82180
O1329       O  0.71006978  0.87631045  0.29094446    -0.84930
C1330       C  0.81646901  0.52363733  0.32698589     0.95840
C1331       C  0.71488669  0.52068572  0.32866937     1.03280
O1332       O  0.73366645  0.95916366  0.27788065    -1.13910
O1333       O  0.65520594  0.90132493  0.26815799    -0.76340
O1334       O  0.67281395  0.90313632  0.34287546    -0.79830
O1335       O  0.81077067  0.52807034  0.28377442    -0.80520
C1336       C  0.64695095  0.88799763  0.31005312     0.94740
O1337       O  0.75699454  0.91498328  0.33949427    -0.78470
O1338       O  0.70601037  0.94104838  0.18301888    -0.83670
C1339       C  0.78358505  0.95504115  0.19094249     0.97360
C1340       C  0.68948214  0.96153850  0.18244111     1.03280
O1341       O  0.78189631  0.48726762  0.19280483    -0.79310
C1342       C  0.74016356  0.88371335  0.31429857     1.01580
Fe1343     Fe  0.60856792  0.89067932  0.99443387     1.65780
Fe1344     Fe  0.63123350  0.87320885  0.09850853     1.73250
Fe1345     Fe  0.58195782  0.92106809  0.09474941     1.54410
O1346       O  0.60333798  0.96698862  0.04685380    -0.83050
O1347       O  0.57555050  0.83172341  0.12001825    -0.81350
O1348       O  0.63212072  0.95128101  0.98842606    -0.85550
O1349       O  0.55159809  0.88145336  0.98527436    -0.80410
O1350       O  0.63547202  0.95852305  0.13347872    -0.82180
O1351       O  0.63013082  0.83615053  0.04836934    -0.84930
C1352       C  0.52393435  0.87728959  0.01269215     0.95840
C1353       C  0.62548145  0.97579209  0.01083852     1.03280
O1354       O  0.60671578  0.89549989  0.06164073    -1.13910
O1355       O  0.68513732  0.91619637  0.07117926    -0.76340
O1356       O  0.66741798  0.90024647  0.99647131    -0.80000
O1357       O  0.52971139  0.88745128  0.05592541    -0.80520
C1358       C  0.69331078  0.91102232  0.02925683     0.94740
O1359       O  0.58316504  0.82775920  0.99995934    -0.78470
O1360       O  0.63448166  0.90518785  0.15648302    -0.83670
C1361       C  0.55673234  0.84139160  0.14849844     0.97360
C1362       C  0.65106502  0.94227183  0.15715113     1.03280
O1363       O  0.55853182  0.87536437  0.14675561    -0.79310
C1364       C  0.60001035  0.81337007  0.02502087     1.01580
Fe1365     Fe  0.54732423  0.76872038  0.34504998     1.65780
Fe1366     Fe  0.58752793  0.78615843  0.24092209     1.73250
Fe1367     Fe  0.99026048  0.73805208  0.24487980     1.54410
O1368       O  0.96576169  0.69212041  0.29283154    -0.83050
O1369       O  0.57331202  0.82751510  0.21953371    -0.81350
O1370       O  0.51035132  0.70811946  0.35111794    -0.85550
O1371       O  0.99948218  0.77778327  0.35429640    -0.80410
O1372       O  0.00634712  0.70071592  0.20609318    -0.82180
O1373       O  0.62351080  0.82328179  0.29099072    -0.84930
C1374       C  0.97603623  0.78191266  0.32686553     0.95840
C1375       C  0.97925822  0.68344011  0.32871895     1.03280
O1376       O  0.54064410  0.76378739  0.27787434    -1.13910
O1377       O  0.59841091  0.74325945  0.26818205    -0.76340
O1378       O  0.59668564  0.75932104  0.34288208    -0.79830
O1379       O  0.97160908  0.77160759  0.28369057    -0.80520
C1380       C  0.61177005  0.74849266  0.31006733     0.94740
O1381       O  0.58485498  0.83164543  0.33941101    -0.78470
O1382       O  0.55877363  0.75414655  0.18300596    -0.83670
C1383       C  0.54484519  0.81776026  0.19105266     0.97370
C1384       C  0.53823747  0.71706250  0.18233718     1.03280
O1385       O  0.01260165  0.78374356  0.19282708    -0.79310
C1386       C  0.61615313  0.84605566  0.31429118     1.01580
Fe1387     Fe  0.60899773  0.70697503  0.99420142     1.65780
Fe1388     Fe  0.62646709  0.74719317  0.09833588     1.73250
Fe1389     Fe  0.57836554  0.64991424  0.09436561     1.54410
O1390       O  0.53242588  0.62540759  0.04642353    -0.83050
O1391       O  0.66782087  0.73297493  0.11972084    -0.81350
O1392       O  0.54839944  0.67000699  0.98815645    -0.85550
O1393       O  0.61805494  0.65912573  0.98493037    -0.80410
O1394       O  0.54104067  0.66600536  0.13316498    -0.82180
O1395       O  0.66357657  0.78317076  0.04826267    -0.84930
C1396       C  0.62221299  0.63569440  0.01235675     0.95840
C1397       C  0.52373041  0.63891165  0.01055577     1.03280
O1398       O  0.60408878  0.70030150  0.06137834    -1.13910
O1399       O  0.58356892  0.75807890  0.07108767    -0.76340
O1400       O  0.59960689  0.75634306  0.99638336    -0.79830
O1401       O  0.61192048  0.63126913  0.05553564    -0.80520
C1402       C  0.58879024  0.77143350  0.02920285     0.94740
O1403       O  0.67191764  0.74450375  0.99982604    -0.78470
O1404       O  0.59446921  0.71844123  0.15625158    -0.83670
C1405       C  0.65806780  0.70450667  0.14820018     0.97360
C1406       C  0.55738952  0.69790306  0.15692088     1.03280
O1407       O  0.62405685  0.67225844  0.14641758    -0.79310
C1408       C  0.68633805  0.77580434  0.02495408     1.01580
Fe1409     Fe  0.79278939  0.89132752  0.99418348     1.65780
Fe1410     Fe  0.75257868  0.86876007  0.09836338     1.73250
Fe1411     Fe  0.84985520  0.91824357  0.09432559     1.54410
O1412       O  0.87446432  0.89695718  0.04635401    -0.83050
O1413       O  0.76686090  0.92443763  0.11984354    -0.81350
O1414       O  0.82979329  0.86779736  0.98821877    -0.85550
O1415       O  0.84060417  0.94833693  0.98485795    -0.80410
O1416       O  0.83375000  0.86477240  0.13306831    -0.82180
O1417       O  0.71660755  0.86972971  0.04830885    -0.84930
C1418       C  0.86392342  0.97612476  0.01227925     0.95840
C1419       C  0.86097698  0.87455008  0.01056465     1.03280
O1420       O  0.79945471  0.89331322  0.06136904    -1.13910
O1421       O  0.74161002  0.81485360  0.07108865    -0.76340
O1422       O  0.74342165  0.83245519  0.99636922    -0.79830
O1423       O  0.86835890  0.97042801  0.05548885    -0.80520
C1424       C  0.72827963  0.80659591  0.02919281     0.94740
O1425       O  0.75527534  0.91664763  0.99975706    -0.78470
O1426       O  0.78135004  0.86566877  0.15622793    -0.83670
C1427       C  0.79535776  0.94325634  0.14831054     0.97370
C1428       C  0.80183114  0.84913141  0.15680655     1.03280
O1429       O  0.82757272  0.94156459  0.14644961    -0.79310
C1430       C  0.72400984  0.89982243  0.02495060     1.01580
Fe1431     Fe  0.73101106  0.76826577  0.34482852     1.65780
Fe1432     Fe  0.71352198  0.79091022  0.24074872     1.73250
Fe1433     Fe  0.76136494  0.74161844  0.24451470     1.54420
O1434       O  0.80729027  0.76300358  0.29240335    -0.83050
O1435       O  0.67203213  0.73521997  0.21924005    -0.81350
O1436       O  0.79161058  0.79181661  0.35082498    -0.85550
O1437       O  0.72177834  0.71128964  0.35399932    -0.80410
O1438       O  0.79881464  0.79512487  0.20577746    -0.82180
O1439       O  0.67647836  0.78982538  0.29088876    -0.84930
C1440       C  0.71760083  0.68361463  0.32658304     0.95840
C1441       C  0.81610906  0.78516352  0.32841068     1.03280
O1442       O  0.73581193  0.76639312  0.27762051    -1.13910
O1443       O  0.75651611  0.84482182  0.26807056    -0.76340
O1444       O  0.74058521  0.82712131  0.34278239    -0.79830
O1445       O  0.72775159  0.68938055  0.28334851    -0.80520
C1446       C  0.75135491  0.85300757  0.30999258     0.94740
O1447       O  0.66809505  0.74286916  0.33931316    -0.78470
O1448       O  0.74548588  0.79414095  0.18277465    -0.83670
C1449       C  0.68169473  0.71639467  0.19076025     0.97370
C1450       C  0.78256520  0.81071815  0.18210295     1.03280
O1451       O  0.71565961  0.71818601  0.19250993    -0.79310
C1452       C  0.65370376  0.75971173  0.31424859     1.01580
Fe1453     Fe  0.89761907  0.60162608  0.01153560     1.65780
Fe1454     Fe  0.88016631  0.62427965  0.90744736     1.73250
Fe1455     Fe  0.92799324  0.57497478  0.91124408     1.54410
O1456       O  0.97388993  0.59633466  0.95915182    -0.83050
O1457       O  0.83868177  0.56859202  0.88592825    -0.81350
O1458       O  0.95821874  0.62518542  0.01753770    -0.85550
O1459       O  0.88838671  0.54464728  0.02070604    -0.80410
O1460       O  0.96546731  0.62848078  0.87253056    -0.82180
O1461       O  0.84309927  0.62318405  0.95756759    -0.84930
C1462       C  0.88420223  0.51697258  0.99328295     0.95840
C1463       C  0.98271259  0.61851793  0.99513507     1.03280
O1464       O  0.90243691  0.59975446  0.94433204    -1.13910
O1465       O  0.92315718  0.67818409  0.93478497    -0.76340
O1466       O  0.90718869  0.66048155  0.00948768    -0.79830
O1467       O  0.89435647  0.52274029  0.95005236    -0.80520
C1468       C  0.91797799  0.68637034  0.97669823     0.94740
O1469       O  0.83470529  0.57622664  0.00599874    -0.78470
O1470       O  0.91215830  0.62752389  0.84949155    -0.83670
C1471       C  0.84834868  0.54975648  0.85747003     0.97370
C1472       C  0.94923858  0.64408871  0.84884596     1.03280
O1473       O  0.88231514  0.55155618  0.85922546    -0.79310
C1474       C  0.82031930  0.59306807  0.98092329     1.01580
Fe1475     Fe  0.95952917  0.72464872  0.66090857     1.65780
Fe1476     Fe  0.91931045  0.70213198  0.76509160     1.73250
Fe1477     Fe  0.51658997  0.75159231  0.76105665     1.54410
O1478       O  0.54119079  0.73026209  0.71311860    -0.83050
O1479       O  0.93360529  0.75782757  0.78651992    -0.81350
O1480       O  0.49653560  0.70111960  0.65496486    -0.85550
O1481       O  0.50734438  0.78165373  0.65155294    -0.80410
O1482       O  0.50046053  0.69813145  0.79983641    -0.82180
O1483       O  0.88334234  0.70307224  0.71501885    -0.84930
C1484       C  0.53068058  0.80944771  0.67895621     0.95840
C1485       C  0.52771231  0.70786316  0.67731955     1.03280
O1486       O  0.96619078  0.72665825  0.72809587    -1.13910
O1487       O  0.90832001  0.64820307  0.73786317    -0.76340
O1488       O  0.91016457  0.66577814  0.66312362    -0.79830
O1489       O  0.53511956  0.80376392  0.72217125    -0.80520
C1490       C  0.89500708  0.63993247  0.69595935     0.94740
O1491       O  0.92201140  0.74996902  0.66644722    -0.78470
O1492       O  0.94807901  0.69906908  0.82297287    -0.83670
C1493       C  0.96209354  0.77664884  0.81499675     0.97370
C1494       C  0.96853658  0.68250807  0.82356421     1.03280
O1495       O  0.49430858  0.77495259  0.81315234    -0.79310
C1496       C  0.89074288  0.73315171  0.69163703     1.01580
Fe1497     Fe  0.89828893  0.78586953  0.01169718     1.65780
Fe1498     Fe  0.87578204  0.74565028  0.90750494     1.73250
Fe1499     Fe  0.92525195  0.84293937  0.91156329     1.54410
O1500       O  0.90391954  0.86754225  0.95949307    -0.83050
O1501       O  0.93147052  0.75993716  0.88608414    -0.81350
O1502       O  0.87475211  0.82286732  0.01761656    -0.85550
O1503       O  0.95529234  0.83369084  0.02107804    -0.80410
O1504       O  0.87180542  0.82682216  0.87277235    -0.82180
O1505       O  0.87671616  0.70967939  0.95758012    -0.84930
C1506       C  0.98309012  0.85701603  0.99367850     0.95840
C1507       C  0.88149463  0.85404395  0.99526209     1.03280
O1508       O  0.90031107  0.79253318  0.94451049    -1.13910
O1509       O  0.82185906  0.73466824  0.93472007    -0.76340
O1510       O  0.83942380  0.73650252  0.00946252    -0.79830
O1511       O  0.97741023  0.86145520  0.95046239    -0.80520
C1512       C  0.81358167  0.72135325  0.97662043     0.94740
O1513       O  0.92360370  0.74834894  0.00617159    -0.78470
O1514       O  0.87272677  0.77442674  0.84962739    -0.83670
C1515       C  0.95030111  0.78843413  0.85762202     0.97370
C1516       C  0.85617547  0.79489423  0.84904137     1.03280
O1517       O  0.94860977  0.82065472  0.85947265    -0.79310
C1518       C  0.90678861  0.71707869  0.98097456     1.01580
Fe1519     Fe  0.71394093  0.60209436  0.01166736     1.65780
Fe1520     Fe  0.75415260  0.61948673  0.90755009     1.73250
Fe1521     Fe  0.65688334  0.57138829  0.91149372     1.54410
O1522       O  0.63238050  0.52546704  0.95946899    -0.83050
O1523       O  0.73994177  0.66083855  0.88615321    -0.81350
O1524       O  0.67695480  0.54149728  0.01778126    -0.85550
O1525       O  0.66610759  0.61116951  0.02088699    -0.80410
O1526       O  0.67297815  0.53403976  0.87272674    -0.82180
O1527       O  0.79013575  0.65662507  0.95760546    -0.84930
C1528       C  0.64265230  0.61528103  0.99345472     0.95840
C1529       C  0.64586474  0.51680587  0.99538540     1.03280
O1530       O  0.70726349  0.59712820  0.94449444    -1.13910
O1531       O  0.76503051  0.57659439  0.93483767    -0.76340
O1532       O  0.76329645  0.59268376  0.00952524    -0.79830
O1533       O  0.63822039  0.60495728  0.95028361    -0.80520
C1534       C  0.77838477  0.58184334  0.97672649     0.94740
O1535       O  0.75147703  0.66501738  0.00598653    -0.78470
O1536       O  0.72540382  0.58746618  0.84963471    -0.83670
C1537       C  0.71149015  0.65108298  0.85765299     0.97370
C1538       C  0.70487096  0.55038229  0.84897126     1.03280
O1539       O  0.67923988  0.61707038  0.85942275    -0.79310
C1540       C  0.78277750  0.67941389  0.98087249     1.01580
Fe1541     Fe  0.77574975  0.54030485  0.66088668     1.65780
Fe1542     Fe  0.79314351  0.58052231  0.76501033     1.73250
Fe1543     Fe  0.74507437  0.98324470  0.76104529     1.54420
O1544       O  0.69916880  0.95873067  0.71305948    -0.83050
O1545       O  0.83448859  0.56631161  0.78642438    -0.81350
O1546       O  0.71517330  0.00332635  0.65477965    -0.85550
O1547       O  0.78483860  0.99246515  0.65165782    -0.80410
O1548       O  0.70771624  0.99932934  0.79980056    -0.82180
O1549       O  0.83028603  0.61650432  0.71496191    -0.84930
C1550       C  0.78898237  0.96903255  0.67909625     0.95840
C1551       C  0.69049363  0.97222907  0.67716959     1.03280
O1552       O  0.77079267  0.53362938  0.72805900    -1.13910
O1553       O  0.75025385  0.59139514  0.73771332    -0.76340
O1554       O  0.76634953  0.58966957  0.66303097    -0.79830
O1555       O  0.77866453  0.96460362  0.72226714    -0.80520
C1556       C  0.75550591  0.60475485  0.69582960     0.94740
O1557       O  0.83866576  0.57783648  0.66657048    -0.78470
O1558       O  0.76111783  0.55177213  0.82291510    -0.83670
C1559       C  0.82473010  0.53785115  0.81491294     0.97360
C1560       C  0.72403787  0.53122597  0.82356757     1.03280
O1561       O  0.79073301  0.00560161  0.81313048    -0.79310
C1562       C  0.85306753  0.60913747  0.69169545     1.01580
Fe1563     Fe  0.77530811  0.72400757  0.66106009     1.65780
Fe1564     Fe  0.79793788  0.70652964  0.76514968     1.73250
Fe1565     Fe  0.74866162  0.75438589  0.76135375     1.54420
O1566       O  0.77004297  0.80029760  0.71346342    -0.83050
O1567       O  0.74224618  0.66504508  0.78664801    -0.81350
O1568       O  0.79887959  0.78461220  0.65507822    -0.85550
O1569       O  0.71833855  0.71478905  0.65187581    -0.80410
O1570       O  0.80215991  0.79184627  0.80008462    -0.82180
O1571       O  0.79684290  0.66946752  0.71501704    -0.84930
C1572       C  0.69066821  0.71061164  0.67929349     0.95840
C1573       C  0.79222512  0.80911500  0.67748518     1.03280
O1574       O  0.77343047  0.72881865  0.72826468    -1.13910
O1575       O  0.85184921  0.74951704  0.73783417    -0.76340
O1576       O  0.83415435  0.73356540  0.66312199    -0.79830
O1577       O  0.69643592  0.72076564  0.72252621    -0.80520
C1578       C  0.86003747  0.74434450  0.69591848     0.94740
O1579       O  0.74989897  0.66108722  0.66657371    -0.78470
O1580       O  0.80118007  0.73851999  0.82311233    -0.83670
C1581       C  0.72340945  0.67471318  0.81510155     0.97360
C1582       C  0.81775712  0.77560485  0.82376372     1.03280
O1583       O  0.72522230  0.70869038  0.81335505    -0.79310
C1584       C  0.76673279  0.64669304  0.69164761     1.01580
loop_ 
_geom_bond_atom_site_label_1 
_geom_bond_atom_site_label_2 
_geom_bond_distance 
_geom_bond_site_symmetry_2 
_ccdc_geom_bond_type 
Fe1           O7   2.073       .  S
Fe1          O14   2.125       .  S
Fe1           O6   2.060       .  S
Fe1         O413   2.133   1_545  S
Fe1          O12   1.934       .  S
Fe2           O5   2.038   1_545  S
Fe2          O18   2.034       .  S
Fe2         O405   2.014       .  S
Fe2         O805   2.067       .  S
Fe2          O12   1.897       .  S
Fe3          O21   2.137       .  S
Fe3           O8   2.151       .  S
Fe3          O15   2.097       .  S
Fe3           O4   2.064       .  S
Fe3          O12   1.938       .  S
O4           C11   1.272       .  A
O5           C19   1.269   1_565  A
O6           C11   1.275       .  A
O7           C10   1.272       .  A
O8           C20   1.268       .  A
O9         Fe398   2.014       .  S
O9           C22   1.248       .  A
C10          O15   1.281       .  A
C10         C142   1.476       .  S
C11         C187   1.447       .  S
O13        Fe794   2.067   1_455  S
O13          C16   1.280       .  A
O14         C808   1.282       .  A
C16         O806   1.282       .  A
C16          C88   1.465       .  S
O17        Fe397   2.133       .  S
O17          C22   1.274       .  A
O18          C20   1.248       .  A
C19          O21   1.287       .  A
C19         C525   1.452   1_545  S
C20         C834   1.480       .  S
C22         C104   1.464       .  S
Fe23         O39   2.133       .  S
Fe23         O29   2.073       .  S
Fe23         O36   2.123       .  S
Fe23         O28   2.060       .  S
Fe23         O34   1.933       .  S
Fe24         O27   2.038       .  S
Fe24         O31   2.014       .  S
Fe24         O40   2.034       .  S
Fe24        O827   2.067   1_455  S
Fe24         O34   1.896       .  S
Fe25         O43   2.137       .  S
Fe25         O30   2.152       .  S
Fe25         O37   2.097       .  S
Fe25         O26   2.064       .  S
Fe25         O34   1.938       .  S
O26          C33   1.272       .  A
O27          C41   1.269       .  A
O28          C33   1.275       .  A
O29          C32   1.272       .  A
O30          C42   1.268       .  A
O31          C44   1.248       .  A
C32          O37   1.281       .  A
C32         C384   1.476       .  S
C33         C297   1.447       .  S
O35        Fe816   2.067       .  S
O35          C38   1.280       .  A
O36         C830   1.282   1_455  A
C38         O828   1.282       .  A
C38         C132   1.464       .  S
O39          C44   1.274       .  A
O40          C42   1.248       .  A
C41          O43   1.286       .  A
C41          C85   1.452       .  S
C42         C812   1.480   1_455  S
C44          C60   1.465       .  S
Fe45         O61   2.133       .  S
Fe45         O51   2.073       .  S
Fe45         O58   2.124       .  S
Fe45         O50   2.060       .  S
Fe45         O56   1.934       .  S
Fe46         O49   2.038       .  S
Fe46         O62   2.034       .  S
Fe46        O845   2.014       .  S
Fe46        O453   2.067       .  S
Fe46         O56   1.897       .  S
Fe47         O65   2.137       .  S
Fe47         O52   2.151       .  S
Fe47         O59   2.097       .  S
Fe47         O48   2.064       .  S
Fe47         O56   1.938       .  S
O48          C55   1.272       .  A
O49          C63   1.269       .  A
O50          C55   1.275       .  A
O51          C54   1.272       .  A
O52          C64   1.268       .  A
O53        Fe838   2.014       .  S
O53          C66   1.248       .  A
C54          O59   1.281       .  A
C54         C296   1.476       .  S
C55         C363   1.447       .  S
O57        Fe442   2.067   1_545  S
O57          C60   1.280       .  A
O58         C456   1.282       .  A
C60         O454   1.282   1_545  A
O61         C858   1.274   1_455  A
O62          C64   1.248       .  A
C63          O65   1.287       .  A
C63         C899   1.453   1_455  S
C64         C482   1.480       .  S
C66         O853   1.274       .  A
C66         C126   1.465       .  S
Fe67         O83   2.133       .  S
Fe67         O73   2.073       .  S
Fe67         O80   2.123   1_545  S
Fe67         O72   2.060       .  S
Fe67         O78   1.933       .  S
Fe68         O71   2.038       .  S
Fe68         O75   2.014       .  S
Fe68         O84   2.034       .  S
Fe68        O475   2.067   1_545  S
Fe68         O78   1.896       .  S
Fe69         O87   2.137       .  S
Fe69         O74   2.152       .  S
Fe69         O81   2.097       .  S
Fe69         O70   2.064       .  S
Fe69         O78   1.938       .  S
O70          C77   1.272       .  A
O71          C85   1.269       .  A
O72          C77   1.275       .  A
O73          C76   1.272       .  A
O74          C86   1.268       .  A
O75          C88   1.248       .  A
C76          O81   1.282       .  A
C76         C252   1.476       .  S
C77         C143   1.447       .  S
O79        Fe464   2.067       .  S
O79          C82   1.280       .  A
O80         C478   1.282       .  A
C82         O476   1.282       .  A
C82         C110   1.464       .  S
O83          C88   1.274       .  A
O84          C86   1.248       .  A
C85          O87   1.286       .  A
C86         C460   1.480   1_545  S
Fe89         O95   2.074       .  S
Fe89        O102   2.124       .  S
Fe89         O94   2.059       .  S
Fe89        O897   2.133       .  S
Fe89        O100   1.933       .  S
Fe90         O93   2.037       .  S
Fe90        O101   2.067       .  S
Fe90        O106   2.034       .  S
Fe90        O889   2.014       .  S
Fe90        O100   1.896       .  S
Fe91        O109   2.138       .  S
Fe91         O96   2.150       .  S
Fe91        O103   2.096       .  S
Fe91         O92   2.065       .  S
Fe91        O100   1.938       .  S
O92          C99   1.273       .  A
O93         C107   1.269       .  A
O94          C99   1.275       .  A
O95          C98   1.272       .  A
O96         C108   1.268       .  A
O97        Fe882   2.014       .  S
O97         C110   1.248   1_655  A
C98         O103   1.281       .  A
C98         C186   1.476       .  S
C99         C253   1.447       .  S
O101        C104   1.280       .  A
O102        C104   1.282       .  A
O105       Fe881   2.133   1_455  S
O105        C110   1.274       .  A
O106        C108   1.248       .  A
C107        O109   1.287       .  A
C107        C855   1.453       .  S
C108        C130   1.479       .  S
Fe111       O127   2.133       .  S
Fe111       O117   2.074       .  S
Fe111       O124   2.125       .  S
Fe111       O116   2.059       .  S
Fe111       O122   1.933       .  S
Fe112       O115   2.037       .  S
Fe112       O123   2.067       .  S
Fe112       O128   2.034       .  S
Fe112       O515   2.014       .  S
Fe112       O122   1.896       .  S
Fe113       O131   2.138       .  S
Fe113       O118   2.150       .  S
Fe113       O125   2.096       .  S
Fe113       O114   2.065       .  S
Fe113       O122   1.938       .  S
O114        C121   1.273       .  A
O115        C129   1.269       .  A
O116        C121   1.275       .  A
O117        C120   1.272       .  A
O118        C130   1.268       .  A
O119       Fe508   2.014       .  S
O119        C132   1.248   1_565  A
C120        O125   1.281       .  A
C120        C362   1.476       .  S
C121        C385   1.447       .  S
O123        C126   1.280       .  A
O124        C126   1.282       .  A
O127        C528   1.274       .  A
O128        C130   1.248       .  A
C129        O131   1.287       .  A
C129        C415   1.452       .  S
C132        O523   1.274   1_545  A
Fe133       O149   2.133       .  S
Fe133       O146   2.123       .  S
Fe133       O138   2.060       .  S
Fe133       O535   2.073       .  S
Fe133       O144   1.933       .  S
Fe134       O137   2.038       .  S
Fe134       O141   2.014       .  S
Fe134       O145   2.067       .  S
Fe134       O150   2.034       .  S
Fe134       O144   1.896       .  S
Fe135       O153   2.137   1_545  S
Fe135       O140   2.152   1_545  S
Fe135       O147   2.097       .  S
Fe135       O136   2.064       .  S
Fe135       O540   1.938   1_545  S
O136        C143   1.272       .  A
O137        C151   1.269       .  A
O138        C539   1.275       .  A
O139       Fe529   2.073   1_545  S
O139        C142   1.272       .  A
O140        C548   1.268       .  A
O141        C154   1.248       .  A
C142        O147   1.281       .  A
C143        O534   1.275   1_545  A
O144       Fe531   1.938       .  S
O145        C148   1.280       .  A
O146        C148   1.282       .  A
C148        C198   1.464       .  S
O149        C154   1.274       .  A
O150        C152   1.248       .  A
C151        O549   1.286       .  A
C151        C239   1.452       .  S
C152        O536   1.268       .  A
C152        C174   1.480       .  S
O153        C547   1.286       .  A
C154        C258   1.465       .  S
Fe155       O171   2.133       .  S
Fe155       O161   2.073       .  S
Fe155       O168   2.125       .  S
Fe155       O160   2.060       .  S
Fe155       O166   1.934   1_556  S
Fe156       O159   2.038       .  S
Fe156       O163   2.014       .  S
Fe156       O167   2.067       .  S
Fe156       O172   2.034       .  S
Fe156       O166   1.897       .  S
Fe157       O175   2.138       .  S
Fe157       O162   2.151       .  S
Fe157       O169   2.097       .  S
Fe157       O158   2.064       .  S
Fe157       O166   1.938       .  S
O158        C165   1.272       .  A
O159        C173   1.269       .  A
O160        C165   1.275   1_556  A
O161        C164   1.272   1_556  A
O162        C174   1.268       .  A
O163        C176   1.248       .  A
C164        O169   1.281       .  A
C164       C1110   1.476   1_454  S
C165        C737   1.447   1_554  S
O167        C170   1.280       .  A
O168        C170   1.282   1_556  A
C170        C242   1.465       .  S
O171        C176   1.274   1_556  A
O172        C174   1.248       .  A
C173        O175   1.287       .  A
C173        C195   1.453       .  S
C176        C214   1.464       .  S
Fe177       O193   2.133       .  S
Fe177       O190   2.125       .  S
Fe177       O182   2.059       .  S
Fe177       O975   2.074   1_455  S
Fe177       O188   1.933       .  S
Fe178       O181   2.037       .  S
Fe178       O185   2.014       .  S
Fe178       O189   2.067       .  S
Fe178       O194   2.034       .  S
Fe178       O188   1.896       .  S
Fe179       O197   2.138       .  S
Fe179       O184   2.150       .  S
Fe179       O191   2.096       .  S
Fe179       O180   2.065       .  S
Fe179       O980   1.938       .  S
O180        C187   1.273       .  A
O181        C195   1.269       .  A
O182        C979   1.275   1_455  A
O183       Fe969   2.074       .  S
O183        C186   1.272       .  A
O184        C988   1.268       .  A
O185        C198   1.248       .  A
C186        O191   1.281       .  A
C187        O974   1.275       .  A
O188       Fe971   1.938   1_455  S
O189        C192   1.280       .  A
O190        C192   1.282       .  A
C192        C264   1.465       .  S
O193        C198   1.274       .  A
O194        C196   1.248       .  A
C195        O989   1.287       .  A
C196        O976   1.268       .  A
C196        C218   1.479       .  S
O197        C987   1.287       .  A
Fe199       O215   2.133       .  S
Fe199       O205   2.074       .  S
Fe199       O212   2.124       .  S
Fe199       O204   2.059       .  S
Fe199       O210   1.933   1_556  S
Fe200       O203   2.037       .  S
Fe200       O207   2.014       .  S
Fe200       O211   2.067       .  S
Fe200       O216   2.034       .  S
Fe200       O210   1.896       .  S
Fe201       O219   2.138       .  S
Fe201       O206   2.150       .  S
Fe201       O213   2.096       .  S
Fe201       O202   2.065       .  S
Fe201       O210   1.938       .  S
O202        C209   1.273       .  A
O203        C217   1.269       .  A
O204        C209   1.275   1_556  A
O205        C208   1.272   1_556  A
O206        C218   1.268       .  A
O207        C220   1.248       .  A
C208        O213   1.281       .  A
C208        C340   1.476   1_554  S
C209       C1067   1.447   1_454  S
O211        C214   1.280       .  A
O212        C214   1.282   1_556  A
O215        C220   1.274   1_556  A
O216        C218   1.248       .  A
C217        O219   1.287       .  A
C217        C261   1.453       .  S
C220        C236   1.464       .  S
Fe221       O237   2.133       .  S
Fe221       O227   2.073       .  S
Fe221       O234   2.123       .  S
Fe221       O226   2.060       .  S
Fe221       O232   1.933   1_556  S
Fe222       O225   2.038       .  S
Fe222       O229   2.014       .  S
Fe222       O233   2.067       .  S
Fe222       O238   2.034       .  S
Fe222       O232   1.896       .  S
Fe223       O241   2.137       .  S
Fe223       O228   2.152       .  S
Fe223       O235   2.097       .  S
Fe223       O224   2.064       .  S
Fe223       O232   1.938       .  S
O224        C231   1.272       .  A
O225        C239   1.269       .  A
O226        C231   1.275   1_556  A
O227        C230   1.272   1_556  A
O228        C240   1.268       .  A
O229        C242   1.248       .  A
C230        O235   1.281       .  A
C230        C670   1.476   1_554  S
C231        C319   1.447   1_554  S
O233        C236   1.280       .  A
O234        C236   1.282   1_556  A
O237        C242   1.274   1_556  A
O238        C240   1.248       .  A
C239        O241   1.286       .  A
C240        C262   1.480       .  S
Fe243       O259   2.133       .  S
Fe243       O249   2.073       .  S
Fe243       O256   2.124       .  S
Fe243       O248   2.061       .  S
Fe243       O254   1.934       .  S
Fe244       O247   2.038       .  S
Fe244       O251   2.014       .  S
Fe244       O255   2.067       .  S
Fe244       O260   2.034       .  S
Fe244       O254   1.897       .  S
Fe245       O263   2.138       .  S
Fe245       O250   2.151       .  S
Fe245       O257   2.097       .  S
Fe245       O246   2.064       .  S
Fe245       O254   1.938       .  S
O246        C253   1.272       .  A
O247        C261   1.269       .  A
O248        C253   1.275       .  A
O249        C252   1.272       .  A
O250        C262   1.268       .  A
O251        C264   1.248       .  A
C252        O257   1.281       .  A
O255        C258   1.280       .  A
O256        C258   1.282       .  A
O259        C264   1.274       .  A
O260        C262   1.248       .  A
C261        O263   1.287       .  A
Fe265       O281   2.133       .  S
Fe265       O271   2.073       .  S
Fe265       O278   2.124       .  S
Fe265       O270   2.061       .  S
Fe265       O276   1.934   1_554  S
Fe266       O269   2.038       .  S
Fe266       O273   2.014       .  S
Fe266       O277   2.067       .  S
Fe266       O282   2.034       .  S
Fe266       O276   1.897       .  S
Fe267       O285   2.137       .  S
Fe267       O272   2.151       .  S
Fe267       O279   2.096       .  S
Fe267       O268   2.064       .  S
Fe267       O276   1.938       .  S
O268        C275   1.272       .  A
O269        C283   1.269       .  A
O270        C275   1.275   1_554  A
O271        C274   1.272   1_554  A
O272        C284   1.268       .  A
O273        C286   1.248       .  A
C274        O279   1.281       .  A
C274        C626   1.476   1_546  S
C275       C1001   1.447   1_556  S
O277        C280   1.280       .  A
O278        C280   1.282   1_554  A
C280        C330   1.465       .  S
O281        C286   1.274   1_554  A
O282        C284   1.248       .  A
C283        O285   1.287       .  A
C283        C371   1.452       .  S
C284        C306   1.480       .  S
C286        C346   1.465       .  S
Fe287       O303   2.133       .  S
Fe287       O300   2.123       .  S
Fe287      O1085   2.073       .  S
Fe287      O1084   2.060       .  S
Fe287       O298   1.933       .  S
Fe288       O291   2.038       .  S
Fe288       O295   2.014       .  S
Fe288       O299   2.067       .  S
Fe288       O304   2.034       .  S
Fe288       O298   1.897       .  S
Fe289       O307   2.137   1_455  S
Fe289       O294   2.152       .  S
Fe289       O301   2.097       .  S
Fe289       O290   2.064       .  S
Fe289      O1090   1.938   1_455  S
O290        C297   1.272       .  A
O291        C305   1.269       .  A
O292      Fe1079   2.060       .  S
O292        C297   1.275   1_655  A
O293      Fe1079   2.073   1_455  S
O293        C296   1.272       .  A
O294       C1098   1.268   1_455  A
O295        C308   1.248       .  A
C296        O301   1.282       .  A
O298      Fe1081   1.938       .  S
O299        C302   1.280       .  A
O300        C302   1.282       .  A
C302        C374   1.464       .  S
O303        C308   1.274       .  A
O304        C306   1.248       .  A
C305       O1099   1.286       .  A
C305        C327   1.452       .  S
C306       O1086   1.268       .  A
O307       C1097   1.286       .  A
C308        C390   1.465       .  S
Fe309       O325   2.133       .  S
Fe309       O315   2.073       .  S
Fe309       O322   2.123       .  S
Fe309       O314   2.060       .  S
Fe309       O320   1.933   1_554  S
Fe310       O313   2.038       .  S
Fe310       O317   2.014       .  S
Fe310       O321   2.067       .  S
Fe310       O326   2.034       .  S
Fe310       O320   1.896       .  S
Fe311       O329   2.137       .  S
Fe311       O316   2.152       .  S
Fe311       O323   2.097       .  S
Fe311       O312   2.064       .  S
Fe311       O320   1.938       .  S
O312        C319   1.272       .  A
O313        C327   1.269       .  A
O314        C319   1.275   1_554  A
O315        C318   1.272   1_554  A
O316        C328   1.268       .  A
O317        C330   1.248       .  A
C318        O323   1.281       .  A
C318        C956   1.476   1_556  S
O321        C324   1.280       .  A
O322        C324   1.282   1_554  A
C324        C352   1.464       .  S
O325        C330   1.274   1_554  A
O326        C328   1.248       .  A
C327        O329   1.286       .  A
C328        C394   1.479       .  S
Fe331       O347   2.133       .  S
Fe331       O337   2.074       .  S
Fe331       O344   2.125       .  S
Fe331       O336   2.059       .  S
Fe331       O342   1.933   1_554  S
Fe332       O335   2.037       .  S
Fe332       O339   2.014       .  S
Fe332       O343   2.067       .  S
Fe332       O348   2.034       .  S
Fe332       O342   1.896       .  S
Fe333       O351   2.138       .  S
Fe333       O338   2.150       .  S
Fe333       O345   2.096       .  S
Fe333       O334   2.065       .  S
Fe333       O342   1.938       .  S
O334        C341   1.273       .  A
O335        C349   1.269       .  A
O336        C341   1.275   1_554  A
O337        C340   1.272   1_554  A
O338        C350   1.268       .  A
O339        C352   1.248       .  A
C340        O345   1.281       .  A
C341        C561   1.447   1_546  S
O343        C346   1.280       .  A
O344        C346   1.282   1_554  A
O347        C352   1.274   1_554  A
O348        C350   1.248       .  A
C349        O351   1.287       .  A
C349        C393   1.452       .  S
C350        C372   1.479       .  S
Fe353       O369   2.133       .  S
Fe353       O366   2.125       .  S
Fe353       O755   2.074   1_545  S
Fe353       O754   2.059       .  S
Fe353       O364   1.933       .  S
Fe354       O357   2.037       .  S
Fe354       O361   2.014       .  S
Fe354       O365   2.067       .  S
Fe354       O370   2.034       .  S
Fe354       O364   1.896       .  S
Fe355       O373   2.138       .  S
Fe355       O360   2.150       .  S
Fe355       O367   2.096       .  S
Fe355       O356   2.065       .  S
Fe355       O760   1.938       .  S
O356        C363   1.273       .  A
O357        C371   1.269       .  A
O358       Fe749   2.059       .  S
O358        C363   1.275       .  A
O359       Fe749   2.074       .  S
O359        C362   1.272       .  A
O360        C768   1.268       .  A
O361        C374   1.248       .  A
C362        O367   1.281       .  A
O364       Fe751   1.938   1_545  S
O365        C368   1.280       .  A
O366        C368   1.282       .  A
C368        C396   1.464       .  S
O369        C374   1.274       .  A
O370        C372   1.248       .  A
C371        O769   1.287       .  A
C372        O756   1.268   1_545  A
O373        C767   1.287       .  A
Fe375       O391   2.133       .  S
Fe375       O381   2.073       .  S
Fe375       O388   2.125       .  S
Fe375       O380   2.060       .  S
Fe375       O386   1.934       .  S
Fe376       O379   2.038       .  S
Fe376       O383   2.014       .  S
Fe376       O387   2.067       .  S
Fe376       O392   2.034       .  S
Fe376       O386   1.897       .  S
Fe377       O395   2.137       .  S
Fe377       O382   2.151       .  S
Fe377       O389   2.096       .  S
Fe377       O378   2.064       .  S
Fe377       O386   1.938       .  S
O378        C385   1.272       .  A
O379        C393   1.269       .  A
O380        C385   1.275       .  A
O381        C384   1.272       .  A
O382        C394   1.268       .  A
O383        C396   1.248       .  A
C384        O389   1.281       .  A
O387        C390   1.280       .  A
O388        C390   1.282       .  A
O391        C396   1.274       .  A
O392        C394   1.248       .  A
C393        O395   1.287       .  A
Fe397       O403   2.073       .  S
Fe397       O410   2.125       .  S
Fe397       O402   2.060       .  S
Fe397       O408   1.934       .  S
Fe398       O401   2.038       .  S
Fe398      O1201   2.067       .  S
Fe398       O414   2.034       .  S
Fe398       O408   1.897       .  S
Fe399       O417   2.137       .  S
Fe399       O404   2.151       .  S
Fe399       O411   2.096       .  S
Fe399       O400   2.064       .  S
Fe399       O408   1.938       .  S
O400        C407   1.272       .  A
O401        C415   1.269       .  A
O402        C407   1.275       .  A
O403        C406   1.272       .  A
O404        C416   1.268       .  A
O405        C418   1.248   1_545  A
C406        O411   1.281       .  A
C406        C538   1.476       .  S
C407        C583   1.447       .  S
O409      Fe1190   2.067   1_455  S
O409        C412   1.280       .  A
O410       C1204   1.282       .  A
C412       O1202   1.282       .  A
C412        C484   1.465       .  S
O413        C418   1.274       .  A
O414        C416   1.248       .  A
C415        O417   1.287       .  A
C416       C1230   1.480       .  S
C418        C500   1.464       .  S
Fe419       O435   2.133       .  S
Fe419       O425   2.073       .  S
Fe419       O432   2.123       .  S
Fe419       O424   2.060       .  S
Fe419       O430   1.933       .  S
Fe420       O423   2.038       .  S
Fe420       O427   2.014       .  S
Fe420      O1223   2.067   1_455  S
Fe420       O436   2.034       .  S
Fe420       O430   1.896       .  S
Fe421       O439   2.137       .  S
Fe421       O426   2.152       .  S
Fe421       O433   2.097       .  S
Fe421       O422   2.064       .  S
Fe421       O430   1.938       .  S
O422        C429   1.272       .  A
O423        C437   1.269       .  A
O424        C429   1.275       .  A
O425        C428   1.272       .  A
O426        C438   1.268       .  A
O427        C440   1.248       .  A
C428        O433   1.281       .  A
C428        C780   1.476       .  S
C429        C693   1.447       .  S
O431      Fe1212   2.067       .  S
O431        C434   1.280       .  A
O432       C1226   1.282   1_455  A
C434       O1224   1.282       .  A
C434        C528   1.464       .  S
O435        C440   1.274       .  A
O436        C438   1.248       .  A
C437        O439   1.286       .  A
C437        C481   1.452       .  S
C438       C1208   1.480   1_455  S
C440        C456   1.465       .  S
Fe441       O457   2.133       .  S
Fe441       O447   2.073       .  S
Fe441       O454   2.124       .  S
Fe441       O446   2.060       .  S
Fe441       O452   1.934       .  S
Fe442       O445   2.038       .  S
Fe442      O1241   2.014       .  S
Fe442       O458   2.034       .  S
Fe442       O452   1.897       .  S
Fe443       O461   2.137       .  S
Fe443       O448   2.151       .  S
Fe443       O455   2.097       .  S
Fe443       O444   2.064       .  S
Fe443       O452   1.938       .  S
O444        C451   1.272       .  A
O445        C459   1.269       .  A
O446        C451   1.275       .  A
O447        C450   1.272       .  A
O448        C460   1.268       .  A
O449      Fe1234   2.014       .  S
O449        C462   1.248       .  A
C450        O455   1.281       .  A
C450        C692   1.476       .  S
C451        C759   1.447       .  S
O453        C456   1.280       .  A
O457       C1254   1.274   1_455  A
O458        C460   1.248       .  A
C459        O461   1.287       .  A
C459       C1295   1.453   1_455  S
C462       O1249   1.274       .  A
C462        C522   1.465       .  S
Fe463       O479   2.133       .  S
Fe463       O469   2.073       .  S
Fe463       O476   2.123       .  S
Fe463       O468   2.060       .  S
Fe463       O474   1.933       .  S
Fe464       O467   2.038       .  S
Fe464       O471   2.014       .  S
Fe464       O480   2.034       .  S
Fe464       O474   1.896       .  S
Fe465       O483   2.137       .  S
Fe465       O470   2.152       .  S
Fe465       O477   2.097       .  S
Fe465       O466   2.064       .  S
Fe465       O474   1.938       .  S
O466        C473   1.272       .  A
O467        C481   1.269       .  A
O468        C473   1.275       .  A
O469        C472   1.272       .  A
O470        C482   1.268       .  A
O471        C484   1.248       .  A
C472        O477   1.282       .  A
C472        C648   1.476       .  S
C473        C539   1.447       .  S
O475        C478   1.280       .  A
C478        C506   1.464       .  S
O479        C484   1.274       .  A
O480        C482   1.248       .  A
C481        O483   1.286       .  A
Fe485      O1293   2.133       .  S
Fe485       O491   2.074       .  S
Fe485       O498   2.124       .  S
Fe485       O490   2.059       .  S
Fe485       O496   1.933       .  S
Fe486       O489   2.037       .  S
Fe486      O1285   2.014       .  S
Fe486       O497   2.067       .  S
Fe486       O502   2.034       .  S
Fe486       O496   1.896       .  S
Fe487       O505   2.138       .  S
Fe487       O492   2.150       .  S
Fe487       O499   2.096       .  S
Fe487       O488   2.065       .  S
Fe487       O496   1.938       .  S
O488        C495   1.273       .  A
O489        C503   1.269       .  A
O490        C495   1.275       .  A
O491        C494   1.272       .  A
O492        C504   1.268       .  A
O493      Fe1278   2.014       .  S
O493        C506   1.248   1_655  A
C494        O499   1.281       .  A
C494        C582   1.476       .  S
C495        C649   1.447       .  S
O497        C500   1.280       .  A
O498        C500   1.282       .  A
O501      Fe1277   2.133   1_455  S
O501        C506   1.274       .  A
O502        C504   1.248       .  A
C503        O505   1.287       .  A
C503       C1251   1.453       .  S
C504        C526   1.479       .  S
Fe507       O523   2.133       .  S
Fe507       O513   2.074       .  S
Fe507       O520   2.125       .  S
Fe507       O512   2.059       .  S
Fe507       O518   1.933       .  S
Fe508       O511   2.037       .  S
Fe508       O519   2.067       .  S
Fe508       O524   2.034       .  S
Fe508       O518   1.896       .  S
Fe509       O527   2.138       .  S
Fe509       O514   2.150       .  S
Fe509       O521   2.096       .  S
Fe509       O510   2.065       .  S
Fe509       O518   1.938       .  S
O510        C517   1.273       .  A
O511        C525   1.269       .  A
O512        C517   1.275       .  A
O513        C516   1.272       .  A
O514        C526   1.268       .  A
O515        C528   1.248       .  A
C516        O521   1.281       .  A
C516        C758   1.476       .  S
C517        C781   1.447       .  S
O519        C522   1.280       .  A
O520        C522   1.282       .  A
O524        C526   1.248       .  A
C525        O527   1.287       .  A
Fe529       O545   2.133       .  S
Fe529       O542   2.123       .  S
Fe529       O534   2.060       .  S
Fe529       O540   1.933       .  S
Fe530       O533   2.038       .  S
Fe530       O537   2.014       .  S
Fe530       O541   2.067       .  S
Fe530       O546   2.034       .  S
Fe530       O540   1.896       .  S
Fe531       O549   2.137       .  S
Fe531       O536   2.152       .  S
Fe531       O543   2.097       .  S
Fe531       O532   2.064       .  S
O532        C539   1.272       .  A
O533        C547   1.269       .  A
O535        C538   1.272       .  A
O537        C550   1.248       .  A
C538        O543   1.281       .  A
O541        C544   1.280       .  A
O542        C544   1.282       .  A
C544        C594   1.464       .  S
O545        C550   1.274       .  A
O546        C548   1.248       .  A
C547        C635   1.452       .  S
C548        C570   1.480       .  S
C550        C654   1.465       .  S
Fe551       O567   2.133       .  S
Fe551       O557   2.073       .  S
Fe551       O564   2.125       .  S
Fe551       O556   2.060       .  S
Fe551       O562   1.934   1_556  S
Fe552       O555   2.038       .  S
Fe552       O559   2.014       .  S
Fe552       O563   2.067       .  S
Fe552       O568   2.034       .  S
Fe552       O562   1.897       .  S
Fe553       O571   2.138       .  S
Fe553       O558   2.151       .  S
Fe553       O565   2.097       .  S
Fe553       O554   2.064       .  S
Fe553       O562   1.938       .  S
O554        C561   1.272       .  A
O555        C569   1.269       .  A
O556        C561   1.275   1_556  A
O557        C560   1.272   1_556  A
O558        C570   1.268       .  A
O559        C572   1.248       .  A
C560        O565   1.281       .  A
C560       C1506   1.476   1_454  S
O563        C566   1.280       .  A
O564        C566   1.282   1_556  A
C566        C638   1.465       .  S
O567        C572   1.274   1_556  A
O568        C570   1.248       .  A
C569        O571   1.287       .  A
C569        C591   1.453       .  S
C572        C610   1.464       .  S
Fe573       O589   2.133       .  S
Fe573      O1371   2.074   1_455  S
Fe573       O586   2.125       .  S
Fe573       O578   2.059       .  S
Fe573       O584   1.933       .  S
Fe574       O577   2.037       .  S
Fe574       O581   2.014       .  S
Fe574       O585   2.067       .  S
Fe574       O590   2.034       .  S
Fe574       O584   1.896       .  S
Fe575       O593   2.138       .  S
Fe575       O580   2.150       .  S
Fe575       O587   2.096       .  S
Fe575       O576   2.065       .  S
Fe575      O1376   1.938       .  S
O576        C583   1.273       .  A
O577        C591   1.269       .  A
O578       C1375   1.275   1_455  A
O579      Fe1365   2.074       .  S
O579        C582   1.272       .  A
O580       C1384   1.268       .  A
O581        C594   1.248       .  A
C582        O587   1.281       .  A
C583       O1370   1.275       .  A
O584      Fe1367   1.938   1_455  S
O585        C588   1.280       .  A
O586        C588   1.282       .  A
C588        C660   1.465       .  S
O589        C594   1.274       .  A
O590        C592   1.248       .  A
C591       O1385   1.287       .  A
C592       O1372   1.268       .  A
C592        C614   1.479       .  S
O593       C1383   1.287       .  A
Fe595       O611   2.133       .  S
Fe595       O601   2.074       .  S
Fe595       O608   2.124       .  S
Fe595       O600   2.059       .  S
Fe595       O606   1.933   1_556  S
Fe596       O599   2.037       .  S
Fe596       O603   2.014       .  S
Fe596       O607   2.067       .  S
Fe596       O612   2.034       .  S
Fe596       O606   1.896       .  S
Fe597       O615   2.138       .  S
Fe597       O602   2.150       .  S
Fe597       O609   2.096       .  S
Fe597       O598   2.065       .  S
Fe597       O606   1.938       .  S
O598        C605   1.273       .  A
O599        C613   1.269       .  A
O600        C605   1.275   1_556  A
O601        C604   1.272   1_556  A
O602        C614   1.268       .  A
O603        C616   1.248       .  A
C604        O609   1.281       .  A
C604        C736   1.476   1_554  S
C605       C1463   1.447   1_454  S
O607        C610   1.280       .  A
O608        C610   1.282   1_556  A
O611        C616   1.274   1_556  A
O612        C614   1.248       .  A
C613        O615   1.287       .  A
C613        C657   1.453       .  S
C616        C632   1.464       .  S
Fe617       O633   2.133       .  S
Fe617       O623   2.073       .  S
Fe617       O630   2.123       .  S
Fe617       O622   2.060       .  S
Fe617       O628   1.933   1_556  S
Fe618       O621   2.038       .  S
Fe618       O625   2.014       .  S
Fe618       O629   2.067       .  S
Fe618       O634   2.034       .  S
Fe618       O628   1.896       .  S
Fe619       O637   2.137       .  S
Fe619       O624   2.152       .  S
Fe619       O631   2.097       .  S
Fe619       O620   2.064       .  S
Fe619       O628   1.938       .  S
O620        C627   1.272       .  A
O621        C635   1.269       .  A
O622        C627   1.275   1_556  A
O623        C626   1.272   1_556  A
O624        C636   1.268       .  A
O625        C638   1.248       .  A
C626        O631   1.281       .  A
C627        C715   1.447   1_554  S
O629        C632   1.280       .  A
O630        C632   1.282   1_556  A
O633        C638   1.274   1_556  A
O634        C636   1.248       .  A
C635        O637   1.286       .  A
C636        C658   1.480       .  S
Fe639       O655   2.133       .  S
Fe639       O645   2.073       .  S
Fe639       O652   2.124       .  S
Fe639       O644   2.061       .  S
Fe639       O650   1.934       .  S
Fe640       O643   2.038       .  S
Fe640       O647   2.014       .  S
Fe640       O651   2.067       .  S
Fe640       O656   2.034       .  S
Fe640       O650   1.897       .  S
Fe641       O659   2.138       .  S
Fe641       O646   2.151       .  S
Fe641       O653   2.097       .  S
Fe641       O642   2.064       .  S
Fe641       O650   1.938       .  S
O642        C649   1.272       .  A
O643        C657   1.269       .  A
O644        C649   1.275       .  A
O645        C648   1.272       .  A
O646        C658   1.268       .  A
O647        C660   1.248       .  A
C648        O653   1.281       .  A
O651        C654   1.280       .  A
O652        C654   1.282       .  A
O655        C660   1.274       .  A
O656        C658   1.248       .  A
C657        O659   1.287       .  A
Fe661       O677   2.133       .  S
Fe661       O667   2.073       .  S
Fe661       O674   2.124       .  S
Fe661       O666   2.061       .  S
Fe661       O672   1.934   1_554  S
Fe662       O665   2.038       .  S
Fe662       O669   2.014       .  S
Fe662       O673   2.067       .  S
Fe662       O678   2.034       .  S
Fe662       O672   1.897       .  S
Fe663       O681   2.137       .  S
Fe663       O668   2.151       .  S
Fe663       O675   2.096       .  S
Fe663       O664   2.064       .  S
Fe663       O672   1.938       .  S
O664        C671   1.272       .  A
O665        C679   1.269       .  A
O666        C671   1.275   1_554  A
O667        C670   1.272   1_554  A
O668        C680   1.268       .  A
O669        C682   1.248       .  A
C670        O675   1.281       .  A
C671       C1397   1.447   1_556  S
O673        C676   1.280       .  A
O674        C676   1.282   1_554  A
C676        C726   1.465       .  S
O677        C682   1.274   1_554  A
O678        C680   1.248       .  A
C679        O681   1.287       .  A
C679        C767   1.452       .  S
C680        C702   1.480       .  S
C682        C742   1.465       .  S
Fe683       O699   2.133       .  S
Fe683      O1481   2.073       .  S
Fe683       O696   2.123       .  S
Fe683      O1480   2.060       .  S
Fe683       O694   1.933       .  S
Fe684       O687   2.038       .  S
Fe684       O691   2.014       .  S
Fe684       O695   2.067       .  S
Fe684       O700   2.034       .  S
Fe684       O694   1.897       .  S
Fe685       O703   2.137   1_455  S
Fe685       O690   2.152       .  S
Fe685       O697   2.097       .  S
Fe685       O686   2.064       .  S
Fe685      O1486   1.938   1_455  S
O686        C693   1.272       .  A
O687        C701   1.269       .  A
O688      Fe1475   2.060       .  S
O688        C693   1.275   1_655  A
O689      Fe1475   2.073   1_455  S
O689        C692   1.272       .  A
O690       C1494   1.268   1_455  A
O691        C704   1.248       .  A
C692        O697   1.282       .  A
O694      Fe1477   1.938       .  S
O695        C698   1.280       .  A
O696        C698   1.282       .  A
C698        C770   1.464       .  S
O699        C704   1.274       .  A
O700        C702   1.248       .  A
C701       O1495   1.286       .  A
C701        C723   1.452       .  S
C702       O1482   1.268       .  A
O703       C1493   1.286       .  A
C704        C786   1.465       .  S
Fe705       O721   2.133       .  S
Fe705       O711   2.073       .  S
Fe705       O718   2.123       .  S
Fe705       O710   2.060       .  S
Fe705       O716   1.933   1_554  S
Fe706       O709   2.038       .  S
Fe706       O713   2.014       .  S
Fe706       O717   2.067       .  S
Fe706       O722   2.034       .  S
Fe706       O716   1.896       .  S
Fe707       O725   2.137       .  S
Fe707       O712   2.152       .  S
Fe707       O719   2.097       .  S
Fe707       O708   2.064       .  S
Fe707       O716   1.938       .  S
O708        C715   1.272       .  A
O709        C723   1.269       .  A
O710        C715   1.275   1_554  A
O711        C714   1.272   1_554  A
O712        C724   1.268       .  A
O713        C726   1.248       .  A
C714        O719   1.282       .  A
C714       C1352   1.476   1_556  S
O717        C720   1.280       .  A
O718        C720   1.282   1_554  A
C720        C748   1.464       .  S
O721        C726   1.274   1_554  A
O722        C724   1.248       .  A
C723        O725   1.286       .  A
C724        C790   1.480       .  S
Fe727       O743   2.133       .  S
Fe727       O733   2.074       .  S
Fe727       O740   2.125       .  S
Fe727       O732   2.059       .  S
Fe727       O738   1.933   1_554  S
Fe728       O731   2.037       .  S
Fe728       O735   2.014       .  S
Fe728       O739   2.067       .  S
Fe728       O744   2.034       .  S
Fe728       O738   1.896       .  S
Fe729       O747   2.138       .  S
Fe729       O734   2.150       .  S
Fe729       O741   2.096       .  S
Fe729       O730   2.065       .  S
Fe729       O738   1.938       .  S
O730        C737   1.273       .  A
O731        C745   1.269       .  A
O732        C737   1.275   1_554  A
O733        C736   1.272   1_554  A
O734        C746   1.268       .  A
O735        C748   1.248       .  A
C736        O741   1.281       .  A
O739        C742   1.280       .  A
O740        C742   1.282   1_554  A
O743        C748   1.274   1_554  A
O744        C746   1.248       .  A
C745        O747   1.287       .  A
C745        C789   1.452       .  S
C746        C768   1.479       .  S
Fe749       O765   2.133       .  S
Fe749       O762   2.125       .  S
Fe749       O760   1.933       .  S
Fe750       O753   2.037       .  S
Fe750       O757   2.014       .  S
Fe750       O761   2.067       .  S
Fe750       O766   2.034       .  S
Fe750       O760   1.896       .  S
Fe751       O769   2.138   1_565  S
Fe751       O756   2.150       .  S
Fe751       O763   2.096       .  S
Fe751       O752   2.065       .  S
O752        C759   1.273       .  A
O753        C767   1.269       .  A
O754        C759   1.275   1_545  A
O755        C758   1.272       .  A
O757        C770   1.248       .  A
C758        O763   1.281       .  A
O761        C764   1.280       .  A
O762        C764   1.282       .  A
C764        C792   1.464       .  S
O765        C770   1.274       .  A
O766        C768   1.248       .  A
Fe771       O787   2.133       .  S
Fe771       O777   2.073       .  S
Fe771       O784   2.125       .  S
Fe771       O776   2.060       .  S
Fe771       O782   1.934       .  S
Fe772       O775   2.038       .  S
Fe772       O779   2.014       .  S
Fe772       O783   2.067       .  S
Fe772       O788   2.034       .  S
Fe772       O782   1.897       .  S
Fe773       O791   2.137       .  S
Fe773       O778   2.151       .  S
Fe773       O785   2.096       .  S
Fe773       O774   2.064       .  S
Fe773       O782   1.938       .  S
O774        C781   1.272       .  A
O775        C789   1.269       .  A
O776        C781   1.275       .  A
O777        C780   1.272       .  A
O778        C790   1.268       .  A
O779        C792   1.248       .  A
C780        O785   1.281       .  A
O783        C786   1.280       .  A
O784        C786   1.282       .  A
O787        C792   1.274       .  A
O788        C790   1.248       .  A
C789        O791   1.287       .  A
Fe793      O1205   2.133   1_545  S
Fe793       O799   2.073       .  S
Fe793       O806   2.125   1_655  S
Fe793       O798   2.060       .  S
Fe793       O804   1.934       .  S
Fe794       O797   2.038   1_545  S
Fe794      O1197   2.014       .  S
Fe794       O810   2.034       .  S
Fe794       O804   1.897       .  S
Fe795       O813   2.137       .  S
Fe795       O800   2.151       .  S
Fe795       O807   2.097       .  S
Fe795       O796   2.064       .  S
Fe795       O804   1.938       .  S
O796        C803   1.272       .  A
O797        C811   1.269   1_565  A
O798        C803   1.275       .  A
O799        C802   1.272       .  A
O800        C812   1.268       .  A
O801      Fe1190   2.014       .  S
O801        C814   1.248       .  A
C802        O807   1.281       .  A
C802        C934   1.476       .  S
C803        C979   1.447       .  S
O805        C808   1.280       .  A
C808        C880   1.465       .  S
O809      Fe1189   2.133       .  S
O809        C814   1.274       .  A
O810        C812   1.248       .  A
C811        O813   1.287       .  A
C811       C1317   1.452   1_545  S
C814        C896   1.464       .  S
Fe815       O831   2.133       .  S
Fe815       O821   2.073       .  S
Fe815       O828   2.123       .  S
Fe815       O820   2.060       .  S
Fe815       O826   1.933       .  S
Fe816       O819   2.038       .  S
Fe816       O823   2.014       .  S
Fe816       O832   2.034       .  S
Fe816       O826   1.896       .  S
Fe817       O835   2.137       .  S
Fe817       O822   2.152       .  S
Fe817       O829   2.097       .  S
Fe817       O818   2.064       .  S
Fe817       O826   1.938       .  S
O818        C825   1.272       .  A
O819        C833   1.269       .  A
O820        C825   1.275       .  A
O821        C824   1.272       .  A
O822        C834   1.268       .  A
O823        C836   1.248       .  A
C824        O829   1.281       .  A
C824       C1176   1.476       .  S
C825       C1089   1.447       .  S
O827        C830   1.280       .  A
C830        C924   1.464       .  S
O831        C836   1.274       .  A
O832        C834   1.248       .  A
C833        O835   1.286       .  A
C833        C877   1.452       .  S
C836        C852   1.465       .  S
Fe837       O853   2.133       .  S
Fe837       O843   2.073       .  S
Fe837       O850   2.124       .  S
Fe837       O842   2.060       .  S
Fe837       O848   1.934       .  S
Fe838       O841   2.038       .  S
Fe838      O1245   2.067       .  S
Fe838       O854   2.034       .  S
Fe838       O848   1.897       .  S
Fe839       O857   2.137       .  S
Fe839       O844   2.151       .  S
Fe839       O851   2.097       .  S
Fe839       O840   2.064       .  S
Fe839       O848   1.938       .  S
O840        C847   1.272       .  A
O841        C855   1.269       .  A
O842        C847   1.275       .  A
O843        C846   1.272       .  A
O844        C856   1.268       .  A
O845        C858   1.248   1_455  A
C846        O851   1.281       .  A
C846       C1088   1.476       .  S
C847       C1155   1.447       .  S
O849      Fe1234   2.067   1_545  S
O849        C852   1.280       .  A
O850       C1248   1.282       .  A
C852       O1246   1.282   1_545  A
O854        C856   1.248       .  A
C855        O857   1.287       .  A
C856       C1274   1.480       .  S
C858        C918   1.465       .  S
Fe859       O875   2.133       .  S
Fe859       O865   2.073       .  S
Fe859       O872   2.123   1_545  S
Fe859       O864   2.060       .  S
Fe859       O870   1.933       .  S
Fe860       O863   2.038       .  S
Fe860       O867   2.014       .  S
Fe860      O1267   2.067   1_545  S
Fe860       O876   2.034       .  S
Fe860       O870   1.896       .  S
Fe861       O879   2.137       .  S
Fe861       O866   2.152       .  S
Fe861       O873   2.097       .  S
Fe861       O862   2.064       .  S
Fe861       O870   1.938       .  S
O862        C869   1.272       .  A
O863        C877   1.269       .  A
O864        C869   1.275       .  A
O865        C868   1.272       .  A
O866        C878   1.268       .  A
O867        C880   1.248       .  A
C868        O873   1.282       .  A
C868       C1044   1.476       .  S
C869        C935   1.447       .  S
O871      Fe1256   2.067       .  S
O871        C874   1.280       .  A
O872       C1270   1.282       .  A
C874       O1268   1.282       .  A
C874        C902   1.464       .  S
O875        C880   1.274       .  A
O876        C878   1.248       .  A
C877        O879   1.286       .  A
C878       C1252   1.480   1_545  S
Fe881       O887   2.074       .  S
Fe881       O894   2.124       .  S
Fe881       O886   2.059       .  S
Fe881       O892   1.933       .  S
Fe882       O885   2.037   1_655  S
Fe882       O893   2.067       .  S
Fe882       O898   2.034       .  S
Fe882       O892   1.896       .  S
Fe883       O901   2.138       .  S
Fe883       O888   2.150       .  S
Fe883       O895   2.096       .  S
Fe883       O884   2.065       .  S
Fe883       O892   1.938       .  S
O884        C891   1.273       .  A
O885        C899   1.269   1_455  A
O886        C891   1.275       .  A
O887        C890   1.272       .  A
O888        C900   1.268       .  A
O889        C902   1.248       .  A
C890        O895   1.281       .  A
C890        C978   1.476       .  S
C891       C1045   1.447       .  S
O893        C896   1.280       .  A
O894        C896   1.282       .  A
O897        C902   1.274       .  A
O898        C900   1.248       .  A
C899        O901   1.287       .  A
C900        C922   1.479       .  S
Fe903       O919   2.133       .  S
Fe903       O909   2.074       .  S
Fe903       O916   2.125       .  S
Fe903       O908   2.059       .  S
Fe903       O914   1.933       .  S
Fe904       O907   2.037       .  S
Fe904      O1307   2.014       .  S
Fe904       O915   2.067       .  S
Fe904       O920   2.034       .  S
Fe904       O914   1.896       .  S
Fe905       O923   2.138       .  S
Fe905       O910   2.150       .  S
Fe905       O917   2.096       .  S
Fe905       O906   2.065       .  S
Fe905       O914   1.938       .  S
O906        C913   1.273       .  A
O907        C921   1.269       .  A
O908        C913   1.275       .  A
O909        C912   1.272       .  A
O910        C922   1.268       .  A
O911      Fe1300   2.014       .  S
O911        C924   1.248   1_565  A
C912        O917   1.281       .  A
C912       C1154   1.476       .  S
C913       C1177   1.447       .  S
O915        C918   1.280       .  A
O916        C918   1.282       .  A
O919       C1320   1.274       .  A
O920        C922   1.248       .  A
C921        O923   1.287       .  A
C921       C1207   1.452       .  S
C924       O1315   1.274   1_545  A
Fe925       O941   2.133       .  S
Fe925      O1327   2.073       .  S
Fe925       O938   2.123       .  S
Fe925       O930   2.060       .  S
Fe925       O936   1.933       .  S
Fe926       O929   2.038       .  S
Fe926       O933   2.014       .  S
Fe926       O937   2.067       .  S
Fe926       O942   2.034       .  S
Fe926       O936   1.896       .  S
Fe927       O945   2.137   1_545  S
Fe927       O932   2.152   1_545  S
Fe927       O939   2.097       .  S
Fe927       O928   2.064       .  S
Fe927      O1332   1.938   1_545  S
O928        C935   1.272       .  A
O929        C943   1.269       .  A
O930       C1331   1.275       .  A
O931      Fe1321   2.073   1_545  S
O931        C934   1.272       .  A
O932       C1340   1.268       .  A
O933        C946   1.248       .  A
C934        O939   1.281       .  A
C935       O1326   1.275   1_545  A
O936      Fe1323   1.938       .  S
O937        C940   1.280       .  A
O938        C940   1.282       .  A
C940        C990   1.464       .  S
O941        C946   1.274       .  A
O942        C944   1.248       .  A
C943       O1341   1.286       .  A
C943       C1031   1.452       .  S
C944       O1328   1.268       .  A
C944        C966   1.480       .  S
O945       C1339   1.286       .  A
C946       C1050   1.465       .  S
Fe947       O963   2.133       .  S
Fe947       O953   2.073       .  S
Fe947       O960   2.125       .  S
Fe947       O952   2.060       .  S
Fe947       O958   1.934   1_556  S
Fe948       O951   2.038       .  S
Fe948       O955   2.014       .  S
Fe948       O959   2.067       .  S
Fe948       O964   2.034       .  S
Fe948       O958   1.897       .  S
Fe949       O967   2.138       .  S
Fe949       O954   2.151       .  S
Fe949       O961   2.097       .  S
Fe949       O950   2.064       .  S
Fe949       O958   1.938       .  S
O950        C957   1.272       .  A
O951        C965   1.269       .  A
O952        C957   1.275   1_556  A
O953        C956   1.272   1_556  A
O954        C966   1.268       .  A
O955        C968   1.248       .  A
C956        O961   1.281       .  A
C957       C1529   1.447   1_554  S
O959        C962   1.280       .  A
O960        C962   1.282   1_556  A
C962       C1034   1.465       .  S
O963        C968   1.274   1_556  A
O964        C966   1.248       .  A
C965        O967   1.287       .  A
C965        C987   1.453       .  S
C968       C1006   1.464       .  S
Fe969       O985   2.133       .  S
Fe969       O982   2.125       .  S
Fe969       O974   2.059       .  S
Fe969       O980   1.933       .  S
Fe970       O973   2.037       .  S
Fe970       O977   2.014       .  S
Fe970       O981   2.067       .  S
Fe970       O986   2.034       .  S
Fe970       O980   1.896       .  S
Fe971       O989   2.138   1_655  S
Fe971       O976   2.150   1_655  S
Fe971       O983   2.096       .  S
Fe971       O972   2.065       .  S
O972        C979   1.273       .  A
O973        C987   1.269       .  A
O975        C978   1.272       .  A
O977        C990   1.248       .  A
C978        O983   1.281       .  A
O981        C984   1.280       .  A
O982        C984   1.282       .  A
C984       C1056   1.465       .  S
O985        C990   1.274       .  A
O986        C988   1.248       .  A
C988       C1010   1.479       .  S
Fe991      O1007   2.133       .  S
Fe991       O997   2.074       .  S
Fe991      O1004   2.124       .  S
Fe991       O996   2.059       .  S
Fe991      O1002   1.933   1_556  S
Fe992       O995   2.037       .  S
Fe992       O999   2.014       .  S
Fe992      O1003   2.067       .  S
Fe992      O1008   2.034       .  S
Fe992      O1002   1.896       .  S
Fe993      O1011   2.138       .  S
Fe993       O998   2.150       .  S
Fe993      O1005   2.096       .  S
Fe993       O994   2.065       .  S
Fe993      O1002   1.938       .  S
O994       C1001   1.273       .  A
O995       C1009   1.269       .  A
O996       C1001   1.275   1_556  A
O997       C1000   1.272   1_556  A
O998       C1010   1.268       .  A
O999       C1012   1.248       .  A
C1000      O1005   1.281       .  A
C1000      C1132   1.476   1_554  S
O1003      C1006   1.280       .  A
O1004      C1006   1.282   1_556  A
O1007      C1012   1.274   1_556  A
O1008      C1010   1.248       .  A
C1009      O1011   1.287       .  A
C1009      C1053   1.453       .  S
C1012      C1028   1.464       .  S
Fe1013     O1029   2.133       .  S
Fe1013     O1019   2.073       .  S
Fe1013     O1026   2.123       .  S
Fe1013     O1018   2.060       .  S
Fe1013     O1024   1.933   1_556  S
Fe1014     O1017   2.038       .  S
Fe1014     O1021   2.014       .  S
Fe1014     O1025   2.067       .  S
Fe1014     O1030   2.034       .  S
Fe1014     O1024   1.896       .  S
Fe1015     O1033   2.137       .  S
Fe1015     O1020   2.152       .  S
Fe1015     O1027   2.097       .  S
Fe1015     O1016   2.064       .  S
Fe1015     O1024   1.938       .  S
O1016      C1023   1.272       .  A
O1017      C1031   1.269       .  A
O1018      C1023   1.275   1_556  A
O1019      C1022   1.272   1_556  A
O1020      C1032   1.268       .  A
O1021      C1034   1.248       .  A
C1022      O1027   1.281       .  A
C1022      C1462   1.476   1_554  S
C1023      C1111   1.447   1_554  S
O1025      C1028   1.280       .  A
O1026      C1028   1.282   1_556  A
O1029      C1034   1.274   1_556  A
O1030      C1032   1.248       .  A
C1031      O1033   1.286       .  A
C1032      C1054   1.480       .  S
Fe1035     O1051   2.133       .  S
Fe1035     O1041   2.073       .  S
Fe1035     O1048   2.124       .  S
Fe1035     O1040   2.061       .  S
Fe1035     O1046   1.934       .  S
Fe1036     O1039   2.038       .  S
Fe1036     O1043   2.014       .  S
Fe1036     O1047   2.067       .  S
Fe1036     O1052   2.034       .  S
Fe1036     O1046   1.897       .  S
Fe1037     O1055   2.138       .  S
Fe1037     O1042   2.151       .  S
Fe1037     O1049   2.097       .  S
Fe1037     O1038   2.064       .  S
Fe1037     O1046   1.938       .  S
O1038      C1045   1.272       .  A
O1039      C1053   1.269       .  A
O1040      C1045   1.275       .  A
O1041      C1044   1.272       .  A
O1042      C1054   1.268       .  A
O1043      C1056   1.248       .  A
C1044      O1049   1.281       .  A
O1047      C1050   1.280       .  A
O1048      C1050   1.282       .  A
O1051      C1056   1.274       .  A
O1052      C1054   1.248       .  A
C1053      O1055   1.287       .  A
Fe1057     O1073   2.133       .  S
Fe1057     O1063   2.073       .  S
Fe1057     O1070   2.124       .  S
Fe1057     O1062   2.061       .  S
Fe1057     O1068   1.934   1_554  S
Fe1058     O1061   2.038       .  S
Fe1058     O1065   2.014       .  S
Fe1058     O1069   2.067       .  S
Fe1058     O1074   2.034       .  S
Fe1058     O1068   1.897       .  S
Fe1059     O1077   2.137       .  S
Fe1059     O1064   2.151       .  S
Fe1059     O1071   2.096       .  S
Fe1059     O1060   2.064       .  S
Fe1059     O1068   1.938       .  S
O1060      C1067   1.272       .  A
O1061      C1075   1.269       .  A
O1062      C1067   1.275   1_554  A
O1063      C1066   1.272   1_554  A
O1064      C1076   1.268       .  A
O1065      C1078   1.248       .  A
C1066      O1071   1.281       .  A
C1066      C1418   1.476   1_546  S
O1069      C1072   1.280       .  A
O1070      C1072   1.282   1_554  A
C1072      C1122   1.465       .  S
O1073      C1078   1.274   1_554  A
O1074      C1076   1.248       .  A
C1075      O1077   1.287       .  A
C1075      C1163   1.452       .  S
C1076      C1098   1.480       .  S
C1078      C1138   1.465       .  S
Fe1079     O1095   2.133       .  S
Fe1079     O1092   2.123       .  S
Fe1079     O1090   1.933       .  S
Fe1080     O1083   2.038       .  S
Fe1080     O1087   2.014       .  S
Fe1080     O1091   2.067       .  S
Fe1080     O1096   2.034       .  S
Fe1080     O1090   1.897       .  S
Fe1081     O1099   2.137       .  S
Fe1081     O1086   2.152       .  S
Fe1081     O1093   2.097       .  S
Fe1081     O1082   2.064       .  S
O1082      C1089   1.272       .  A
O1083      C1097   1.269       .  A
O1084      C1089   1.275       .  A
O1085      C1088   1.272       .  A
O1087      C1100   1.248       .  A
C1088      O1093   1.282       .  A
O1091      C1094   1.280       .  A
O1092      C1094   1.282       .  A
C1094      C1166   1.464       .  S
O1095      C1100   1.274       .  A
O1096      C1098   1.248       .  A
C1097      C1119   1.452       .  S
C1100      C1182   1.465       .  S
Fe1101     O1117   2.133       .  S
Fe1101     O1107   2.073       .  S
Fe1101     O1114   2.123       .  S
Fe1101     O1106   2.060       .  S
Fe1101     O1112   1.933   1_554  S
Fe1102     O1105   2.038       .  S
Fe1102     O1109   2.014       .  S
Fe1102     O1113   2.067       .  S
Fe1102     O1118   2.034       .  S
Fe1102     O1112   1.896       .  S
Fe1103     O1121   2.137       .  S
Fe1103     O1108   2.152       .  S
Fe1103     O1115   2.097       .  S
Fe1103     O1104   2.064       .  S
Fe1103     O1112   1.938       .  S
O1104      C1111   1.272       .  A
O1105      C1119   1.269       .  A
O1106      C1111   1.275   1_554  A
O1107      C1110   1.272   1_554  A
O1108      C1120   1.268       .  A
O1109      C1122   1.248       .  A
C1110      O1115   1.281       .  A
O1113      C1116   1.280       .  A
O1114      C1116   1.282   1_554  A
C1116      C1144   1.464       .  S
O1117      C1122   1.274   1_554  A
O1118      C1120   1.248       .  A
C1119      O1121   1.286       .  A
C1120      C1186   1.479       .  S
Fe1123     O1139   2.133       .  S
Fe1123     O1129   2.074       .  S
Fe1123     O1136   2.125       .  S
Fe1123     O1128   2.059       .  S
Fe1123     O1134   1.933   1_554  S
Fe1124     O1127   2.037       .  S
Fe1124     O1131   2.014       .  S
Fe1124     O1135   2.067       .  S
Fe1124     O1140   2.034       .  S
Fe1124     O1134   1.896       .  S
Fe1125     O1143   2.138       .  S
Fe1125     O1130   2.150       .  S
Fe1125     O1137   2.096       .  S
Fe1125     O1126   2.065       .  S
Fe1125     O1134   1.938       .  S
O1126      C1133   1.273       .  A
O1127      C1141   1.269       .  A
O1128      C1133   1.275   1_554  A
O1129      C1132   1.272   1_554  A
O1130      C1142   1.268       .  A
O1131      C1144   1.248       .  A
C1132      O1137   1.281       .  A
C1133      C1353   1.447   1_546  S
O1135      C1138   1.280       .  A
O1136      C1138   1.282   1_554  A
O1139      C1144   1.274   1_554  A
O1140      C1142   1.248       .  A
C1141      O1143   1.287       .  A
C1141      C1185   1.452       .  S
C1142      C1164   1.479       .  S
Fe1145     O1161   2.133       .  S
Fe1145     O1547   2.074   1_545  S
Fe1145     O1158   2.125       .  S
Fe1145     O1546   2.059       .  S
Fe1145     O1156   1.933       .  S
Fe1146     O1149   2.037       .  S
Fe1146     O1153   2.014       .  S
Fe1146     O1157   2.067       .  S
Fe1146     O1162   2.034       .  S
Fe1146     O1156   1.896       .  S
Fe1147     O1165   2.138       .  S
Fe1147     O1152   2.150       .  S
Fe1147     O1159   2.096       .  S
Fe1147     O1148   2.065       .  S
Fe1147     O1552   1.938       .  S
O1148      C1155   1.273       .  A
O1149      C1163   1.269       .  A
O1150     Fe1541   2.059       .  S
O1150      C1155   1.275       .  A
O1151     Fe1541   2.074       .  S
O1151      C1154   1.272       .  A
O1152      C1560   1.268       .  A
O1153      C1166   1.248       .  A
C1154      O1159   1.281       .  A
O1156     Fe1543   1.938   1_545  S
O1157      C1160   1.280       .  A
O1158      C1160   1.282       .  A
C1160      C1188   1.464       .  S
O1161      C1166   1.274       .  A
O1162      C1164   1.248       .  A
C1163      O1561   1.287       .  A
C1164      O1548   1.268   1_545  A
O1165      C1559   1.287       .  A
Fe1167     O1183   2.133       .  S
Fe1167     O1173   2.073       .  S
Fe1167     O1180   2.125       .  S
Fe1167     O1172   2.060       .  S
Fe1167     O1178   1.934       .  S
Fe1168     O1171   2.038       .  S
Fe1168     O1175   2.014       .  S
Fe1168     O1179   2.067       .  S
Fe1168     O1184   2.034       .  S
Fe1168     O1178   1.897       .  S
Fe1169     O1187   2.137       .  S
Fe1169     O1174   2.151       .  S
Fe1169     O1181   2.096       .  S
Fe1169     O1170   2.064       .  S
Fe1169     O1178   1.938       .  S
O1170      C1177   1.272       .  A
O1171      C1185   1.269       .  A
O1172      C1177   1.275       .  A
O1173      C1176   1.272       .  A
O1174      C1186   1.268       .  A
O1175      C1188   1.248       .  A
C1176      O1181   1.281       .  A
O1179      C1182   1.280       .  A
O1180      C1182   1.282       .  A
O1183      C1188   1.274       .  A
O1184      C1186   1.248       .  A
C1185      O1187   1.287       .  A
Fe1189     O1195   2.073       .  S
Fe1189     O1202   2.125   1_655  S
Fe1189     O1194   2.060       .  S
Fe1189     O1200   1.934       .  S
Fe1190     O1193   2.038       .  S
Fe1190     O1206   2.034       .  S
Fe1190     O1200   1.897       .  S
Fe1191     O1209   2.137       .  S
Fe1191     O1196   2.151       .  S
Fe1191     O1203   2.096       .  S
Fe1191     O1192   2.064       .  S
Fe1191     O1200   1.938       .  S
O1192      C1199   1.272       .  A
O1193      C1207   1.269       .  A
O1194      C1199   1.275       .  A
O1195      C1198   1.272       .  A
O1196      C1208   1.268       .  A
O1197      C1210   1.248   1_545  A
C1198      O1203   1.281       .  A
C1198      C1330   1.476       .  S
C1199      C1375   1.447       .  S
O1201      C1204   1.280       .  A
C1204      C1276   1.465       .  S
O1205      C1210   1.274       .  A
O1206      C1208   1.248       .  A
C1207      O1209   1.287       .  A
C1210      C1292   1.464       .  S
Fe1211     O1227   2.133       .  S
Fe1211     O1217   2.073       .  S
Fe1211     O1224   2.123       .  S
Fe1211     O1216   2.060       .  S
Fe1211     O1222   1.933       .  S
Fe1212     O1215   2.038       .  S
Fe1212     O1219   2.014       .  S
Fe1212     O1228   2.034       .  S
Fe1212     O1222   1.896       .  S
Fe1213     O1231   2.137       .  S
Fe1213     O1218   2.152       .  S
Fe1213     O1225   2.097       .  S
Fe1213     O1214   2.064       .  S
Fe1213     O1222   1.938       .  S
O1214      C1221   1.272       .  A
O1215      C1229   1.269       .  A
O1216      C1221   1.275       .  A
O1217      C1220   1.272       .  A
O1218      C1230   1.268       .  A
O1219      C1232   1.248       .  A
C1220      O1225   1.281       .  A
C1220      C1572   1.476       .  S
C1221      C1485   1.447       .  S
O1223      C1226   1.280       .  A
C1226      C1320   1.464       .  S
O1227      C1232   1.274       .  A
O1228      C1230   1.248       .  A
C1229      O1231   1.286       .  A
C1229      C1273   1.452       .  S
C1232      C1248   1.465       .  S
Fe1233     O1249   2.133       .  S
Fe1233     O1239   2.073       .  S
Fe1233     O1246   2.124       .  S
Fe1233     O1238   2.060       .  S
Fe1233     O1244   1.934       .  S
Fe1234     O1237   2.038       .  S
Fe1234     O1250   2.034       .  S
Fe1234     O1244   1.897       .  S
Fe1235     O1253   2.137       .  S
Fe1235     O1240   2.151       .  S
Fe1235     O1247   2.097       .  S
Fe1235     O1236   2.064       .  S
Fe1235     O1244   1.938       .  S
O1236      C1243   1.272       .  A
O1237      C1251   1.269       .  A
O1238      C1243   1.275       .  A
O1239      C1242   1.272       .  A
O1240      C1252   1.268       .  A
O1241      C1254   1.248   1_455  A
C1242      O1247   1.281       .  A
C1242      C1484   1.476       .  S
C1243      C1551   1.447       .  S
O1245      C1248   1.280       .  A
O1250      C1252   1.248       .  A
C1251      O1253   1.287       .  A
C1254      C1314   1.465       .  S
Fe1255     O1271   2.133       .  S
Fe1255     O1261   2.073       .  S
Fe1255     O1268   2.123       .  S
Fe1255     O1260   2.060       .  S
Fe1255     O1266   1.933       .  S
Fe1256     O1259   2.038       .  S
Fe1256     O1263   2.014       .  S
Fe1256     O1272   2.034       .  S
Fe1256     O1266   1.896       .  S
Fe1257     O1275   2.137       .  S
Fe1257     O1262   2.152       .  S
Fe1257     O1269   2.097       .  S
Fe1257     O1258   2.064       .  S
Fe1257     O1266   1.938       .  S
O1258      C1265   1.272       .  A
O1259      C1273   1.269       .  A
O1260      C1265   1.275       .  A
O1261      C1264   1.272       .  A
O1262      C1274   1.268       .  A
O1263      C1276   1.248       .  A
C1264      O1269   1.282       .  A
C1264      C1440   1.476       .  S
C1265      C1331   1.447       .  S
O1267      C1270   1.280       .  A
C1270      C1298   1.464       .  S
O1271      C1276   1.274       .  A
O1272      C1274   1.248       .  A
C1273      O1275   1.286       .  A
Fe1277     O1283   2.074       .  S
Fe1277     O1290   2.124       .  S
Fe1277     O1282   2.059       .  S
Fe1277     O1288   1.933       .  S
Fe1278     O1281   2.037   1_655  S
Fe1278     O1289   2.067       .  S
Fe1278     O1294   2.034       .  S
Fe1278     O1288   1.896       .  S
Fe1279     O1297   2.138       .  S
Fe1279     O1284   2.150       .  S
Fe1279     O1291   2.096       .  S
Fe1279     O1280   2.065       .  S
Fe1279     O1288   1.938       .  S
O1280      C1287   1.273       .  A
O1281      C1295   1.269   1_455  A
O1282      C1287   1.275       .  A
O1283      C1286   1.272       .  A
O1284      C1296   1.268       .  A
O1285      C1298   1.248       .  A
C1286      O1291   1.281       .  A
C1286      C1374   1.476       .  S
C1287      C1441   1.447       .  S
O1289      C1292   1.280       .  A
O1290      C1292   1.282       .  A
O1293      C1298   1.274       .  A
O1294      C1296   1.248       .  A
C1295      O1297   1.287       .  A
C1296      C1318   1.479       .  S
Fe1299     O1315   2.133       .  S
Fe1299     O1305   2.074       .  S
Fe1299     O1312   2.125       .  S
Fe1299     O1304   2.059       .  S
Fe1299     O1310   1.933       .  S
Fe1300     O1303   2.037       .  S
Fe1300     O1311   2.067       .  S
Fe1300     O1316   2.034       .  S
Fe1300     O1310   1.896       .  S
Fe1301     O1319   2.138       .  S
Fe1301     O1306   2.150       .  S
Fe1301     O1313   2.096       .  S
Fe1301     O1302   2.065       .  S
Fe1301     O1310   1.938       .  S
O1302      C1309   1.273       .  A
O1303      C1317   1.269       .  A
O1304      C1309   1.275       .  A
O1305      C1308   1.272       .  A
O1306      C1318   1.268       .  A
O1307      C1320   1.248       .  A
C1308      O1313   1.281       .  A
C1308      C1550   1.476       .  S
C1309      C1573   1.447       .  S
O1311      C1314   1.280       .  A
O1312      C1314   1.282       .  A
O1316      C1318   1.248       .  A
C1317      O1319   1.287       .  A
Fe1321     O1337   2.133       .  S
Fe1321     O1334   2.123       .  S
Fe1321     O1326   2.060       .  S
Fe1321     O1332   1.933       .  S
Fe1322     O1325   2.038       .  S
Fe1322     O1329   2.014       .  S
Fe1322     O1333   2.067       .  S
Fe1322     O1338   2.034       .  S
Fe1322     O1332   1.896       .  S
Fe1323     O1341   2.137       .  S
Fe1323     O1328   2.152       .  S
Fe1323     O1335   2.097       .  S
Fe1323     O1324   2.064       .  S
O1324      C1331   1.272       .  A
O1325      C1339   1.269       .  A
O1327      C1330   1.272       .  A
O1329      C1342   1.248       .  A
C1330      O1335   1.281       .  A
O1333      C1336   1.280       .  A
O1334      C1336   1.282       .  A
C1336      C1386   1.464       .  S
O1337      C1342   1.274       .  A
O1338      C1340   1.248       .  A
C1339      C1427   1.452       .  S
C1340      C1362   1.480       .  S
C1342      C1446   1.465       .  S
Fe1343     O1359   2.133       .  S
Fe1343     O1349   2.073       .  S
Fe1343     O1356   2.125       .  S
Fe1343     O1348   2.060       .  S
Fe1343     O1354   1.934   1_556  S
Fe1344     O1347   2.038       .  S
Fe1344     O1351   2.014       .  S
Fe1344     O1355   2.067       .  S
Fe1344     O1360   2.034       .  S
Fe1344     O1354   1.897       .  S
Fe1345     O1363   2.138       .  S
Fe1345     O1350   2.151       .  S
Fe1345     O1357   2.097       .  S
Fe1345     O1346   2.064       .  S
Fe1345     O1354   1.938       .  S
O1346      C1353   1.272       .  A
O1347      C1361   1.269       .  A
O1348      C1353   1.275   1_556  A
O1349      C1352   1.272   1_556  A
O1350      C1362   1.268       .  A
O1351      C1364   1.248       .  A
C1352      O1357   1.281       .  A
O1355      C1358   1.280       .  A
O1356      C1358   1.282   1_556  A
C1358      C1430   1.465       .  S
O1359      C1364   1.274   1_556  A
O1360      C1362   1.248       .  A
C1361      O1363   1.287       .  A
C1361      C1383   1.453       .  S
C1364      C1402   1.464       .  S
Fe1365     O1381   2.133       .  S
Fe1365     O1378   2.125       .  S
Fe1365     O1370   2.059       .  S
Fe1365     O1376   1.933       .  S
Fe1366     O1369   2.037       .  S
Fe1366     O1373   2.014       .  S
Fe1366     O1377   2.067       .  S
Fe1366     O1382   2.034       .  S
Fe1366     O1376   1.896       .  S
Fe1367     O1385   2.138   1_655  S
Fe1367     O1372   2.150   1_655  S
Fe1367     O1379   2.096       .  S
Fe1367     O1368   2.065       .  S
O1368      C1375   1.273       .  A
O1369      C1383   1.269       .  A
O1371      C1374   1.272       .  A
O1373      C1386   1.248       .  A
C1374      O1379   1.281       .  A
O1377      C1380   1.280       .  A
O1378      C1380   1.282       .  A
C1380      C1452   1.465       .  S
O1381      C1386   1.274       .  A
O1382      C1384   1.248       .  A
C1384      C1406   1.479       .  S
Fe1387     O1403   2.133       .  S
Fe1387     O1393   2.074       .  S
Fe1387     O1400   2.124       .  S
Fe1387     O1392   2.059       .  S
Fe1387     O1398   1.933   1_556  S
Fe1388     O1391   2.037       .  S
Fe1388     O1395   2.014       .  S
Fe1388     O1399   2.067       .  S
Fe1388     O1404   2.034       .  S
Fe1388     O1398   1.896       .  S
Fe1389     O1407   2.138       .  S
Fe1389     O1394   2.150       .  S
Fe1389     O1401   2.096       .  S
Fe1389     O1390   2.065       .  S
Fe1389     O1398   1.938       .  S
O1390      C1397   1.273       .  A
O1391      C1405   1.269       .  A
O1392      C1397   1.275   1_556  A
O1393      C1396   1.272   1_556  A
O1394      C1406   1.268       .  A
O1395      C1408   1.248       .  A
C1396      O1401   1.281       .  A
C1396      C1528   1.476   1_554  S
O1399      C1402   1.280       .  A
O1400      C1402   1.282   1_556  A
O1403      C1408   1.274   1_556  A
O1404      C1406   1.248       .  A
C1405      O1407   1.287       .  A
C1405      C1449   1.453       .  S
C1408      C1424   1.464       .  S
Fe1409     O1425   2.133       .  S
Fe1409     O1415   2.073       .  S
Fe1409     O1422   2.123       .  S
Fe1409     O1414   2.060       .  S
Fe1409     O1420   1.933   1_556  S
Fe1410     O1413   2.038       .  S
Fe1410     O1417   2.014       .  S
Fe1410     O1421   2.067       .  S
Fe1410     O1426   2.034       .  S
Fe1410     O1420   1.896       .  S
Fe1411     O1429   2.137       .  S
Fe1411     O1416   2.152       .  S
Fe1411     O1423   2.097       .  S
Fe1411     O1412   2.064       .  S
Fe1411     O1420   1.938       .  S
O1412      C1419   1.272       .  A
O1413      C1427   1.269       .  A
O1414      C1419   1.275   1_556  A
O1415      C1418   1.272   1_556  A
O1416      C1428   1.268       .  A
O1417      C1430   1.248       .  A
C1418      O1423   1.281       .  A
C1419      C1507   1.447   1_554  S
O1421      C1424   1.280       .  A
O1422      C1424   1.282   1_556  A
O1425      C1430   1.274   1_556  A
O1426      C1428   1.248       .  A
C1427      O1429   1.286       .  A
C1428      C1450   1.480       .  S
Fe1431     O1447   2.133       .  S
Fe1431     O1437   2.073       .  S
Fe1431     O1444   2.124       .  S
Fe1431     O1436   2.061       .  S
Fe1431     O1442   1.934       .  S
Fe1432     O1435   2.038       .  S
Fe1432     O1439   2.014       .  S
Fe1432     O1443   2.067       .  S
Fe1432     O1448   2.034       .  S
Fe1432     O1442   1.897       .  S
Fe1433     O1451   2.138       .  S
Fe1433     O1438   2.151       .  S
Fe1433     O1445   2.097       .  S
Fe1433     O1434   2.064       .  S
Fe1433     O1442   1.938       .  S
O1434      C1441   1.272       .  A
O1435      C1449   1.269       .  A
O1436      C1441   1.275       .  A
O1437      C1440   1.272       .  A
O1438      C1450   1.268       .  A
O1439      C1452   1.248       .  A
C1440      O1445   1.281       .  A
O1443      C1446   1.280       .  A
O1444      C1446   1.282       .  A
O1447      C1452   1.274       .  A
O1448      C1450   1.248       .  A
C1449      O1451   1.287       .  A
Fe1453     O1469   2.133       .  S
Fe1453     O1459   2.073       .  S
Fe1453     O1466   2.124       .  S
Fe1453     O1458   2.061       .  S
Fe1453     O1464   1.934   1_554  S
Fe1454     O1457   2.038       .  S
Fe1454     O1461   2.014       .  S
Fe1454     O1465   2.067       .  S
Fe1454     O1470   2.034       .  S
Fe1454     O1464   1.897       .  S
Fe1455     O1473   2.137       .  S
Fe1455     O1460   2.151       .  S
Fe1455     O1467   2.096       .  S
Fe1455     O1456   2.064       .  S
Fe1455     O1464   1.938       .  S
O1456      C1463   1.272       .  A
O1457      C1471   1.269       .  A
O1458      C1463   1.275   1_554  A
O1459      C1462   1.272   1_554  A
O1460      C1472   1.268       .  A
O1461      C1474   1.248       .  A
C1462      O1467   1.281       .  A
O1465      C1468   1.280       .  A
O1466      C1468   1.282   1_554  A
C1468      C1518   1.465       .  S
O1469      C1474   1.274   1_554  A
O1470      C1472   1.248       .  A
C1471      O1473   1.287       .  A
C1471      C1559   1.452       .  S
C1472      C1494   1.480       .  S
C1474      C1534   1.465       .  S
Fe1475     O1491   2.133       .  S
Fe1475     O1488   2.123       .  S
Fe1475     O1486   1.933       .  S
Fe1476     O1479   2.038       .  S
Fe1476     O1483   2.014       .  S
Fe1476     O1487   2.067       .  S
Fe1476     O1492   2.034       .  S
Fe1476     O1486   1.897       .  S
Fe1477     O1495   2.137       .  S
Fe1477     O1482   2.152       .  S
Fe1477     O1489   2.097       .  S
Fe1477     O1478   2.064       .  S
O1478      C1485   1.272       .  A
O1479      C1493   1.269       .  A
O1480      C1485   1.275       .  A
O1481      C1484   1.272       .  A
O1483      C1496   1.248       .  A
C1484      O1489   1.282       .  A
O1487      C1490   1.280       .  A
O1488      C1490   1.282       .  A
C1490      C1562   1.464       .  S
O1491      C1496   1.274       .  A
O1492      C1494   1.248       .  A
C1493      C1515   1.452       .  S
C1496      C1578   1.465       .  S
Fe1497     O1513   2.133       .  S
Fe1497     O1503   2.073       .  S
Fe1497     O1510   2.123       .  S
Fe1497     O1502   2.060       .  S
Fe1497     O1508   1.933   1_554  S
Fe1498     O1501   2.038       .  S
Fe1498     O1505   2.014       .  S
Fe1498     O1509   2.067       .  S
Fe1498     O1514   2.034       .  S
Fe1498     O1508   1.896       .  S
Fe1499     O1517   2.137       .  S
Fe1499     O1504   2.152       .  S
Fe1499     O1511   2.097       .  S
Fe1499     O1500   2.064       .  S
Fe1499     O1508   1.938       .  S
O1500      C1507   1.272       .  A
O1501      C1515   1.269       .  A
O1502      C1507   1.275   1_554  A
O1503      C1506   1.272   1_554  A
O1504      C1516   1.268       .  A
O1505      C1518   1.248       .  A
C1506      O1511   1.282       .  A
O1509      C1512   1.280       .  A
O1510      C1512   1.282   1_554  A
C1512      C1540   1.464       .  S
O1513      C1518   1.274   1_554  A
O1514      C1516   1.248       .  A
C1515      O1517   1.286       .  A
C1516      C1582   1.480       .  S
Fe1519     O1535   2.133       .  S
Fe1519     O1525   2.074       .  S
Fe1519     O1532   2.125       .  S
Fe1519     O1524   2.059       .  S
Fe1519     O1530   1.933   1_554  S
Fe1520     O1523   2.037       .  S
Fe1520     O1527   2.014       .  S
Fe1520     O1531   2.067       .  S
Fe1520     O1536   2.034       .  S
Fe1520     O1530   1.896       .  S
Fe1521     O1539   2.138       .  S
Fe1521     O1526   2.150       .  S
Fe1521     O1533   2.096       .  S
Fe1521     O1522   2.065       .  S
Fe1521     O1530   1.938       .  S
O1522      C1529   1.273       .  A
O1523      C1537   1.269       .  A
O1524      C1529   1.275   1_554  A
O1525      C1528   1.272   1_554  A
O1526      C1538   1.268       .  A
O1527      C1540   1.248       .  A
C1528      O1533   1.281       .  A
O1531      C1534   1.280       .  A
O1532      C1534   1.282   1_554  A
O1535      C1540   1.274   1_554  A
O1536      C1538   1.248       .  A
C1537      O1539   1.287       .  A
C1537      C1581   1.452       .  S
C1538      C1560   1.479       .  S
Fe1541     O1557   2.133       .  S
Fe1541     O1554   2.125       .  S
Fe1541     O1552   1.933       .  S
Fe1542     O1545   2.037       .  S
Fe1542     O1549   2.014       .  S
Fe1542     O1553   2.067       .  S
Fe1542     O1558   2.034       .  S
Fe1542     O1552   1.896       .  S
Fe1543     O1561   2.138   1_565  S
Fe1543     O1548   2.150       .  S
Fe1543     O1555   2.096       .  S
Fe1543     O1544   2.065       .  S
O1544      C1551   1.273       .  A
O1545      C1559   1.269       .  A
O1546      C1551   1.275   1_545  A
O1547      C1550   1.272       .  A
O1549      C1562   1.248       .  A
C1550      O1555   1.281       .  A
O1553      C1556   1.280       .  A
O1554      C1556   1.282       .  A
C1556      C1584   1.464       .  S
O1557      C1562   1.274       .  A
O1558      C1560   1.248       .  A
Fe1563     O1579   2.133       .  S
Fe1563     O1569   2.073       .  S
Fe1563     O1576   2.125       .  S
Fe1563     O1568   2.060       .  S
Fe1563     O1574   1.934       .  S
Fe1564     O1567   2.038       .  S
Fe1564     O1571   2.014       .  S
Fe1564     O1575   2.067       .  S
Fe1564     O1580   2.034       .  S
Fe1564     O1574   1.897       .  S
Fe1565     O1583   2.137       .  S
Fe1565     O1570   2.151       .  S
Fe1565     O1577   2.096       .  S
Fe1565     O1566   2.064       .  S
Fe1565     O1574   1.938       .  S
O1566      C1573   1.272       .  A
O1567      C1581   1.269       .  A
O1568      C1573   1.275       .  A
O1569      C1572   1.272       .  A
O1570      C1582   1.268       .  A
O1571      C1584   1.248       .  A
C1572      O1577   1.281       .  A
O1575      C1578   1.280       .  A
O1576      C1578   1.282       .  A
O1579      C1584   1.274       .  A
O1580      C1582   1.248       .  A
C1581      O1583   1.287       .  A
