geometry optimzed in LAMMPS
_audit_creation_date              2020-12-01 
_audit_creation_method            'lammps2cif' 
_symmetry_space_group_name_H-M    'P1' 
_symmetry_Int_Tables_number       1 
_symmetry_cell_setting            triclinic 
loop_ 
_symmetry_equiv_pos_as_xyz 
  x,y,z 
_cell_length_a                    39.99792495 
_cell_length_b                    38.53184770051546 
_cell_length_c                    48.49435840082155 
_cell_angle_alpha                 90.01211243021274 
_cell_angle_beta                  90.32786960262908 
_cell_angle_gamma                 90.23450643256184 
loop_ 
_atom_site_label 
_atom_site_type_symbol 
_atom_site_fract_x 
_atom_site_fract_y 
_atom_site_fract_z 
_atom_site_charge 
In1        In  0.25009499  0.90466270  0.32376546     1.36900
C2          C  0.25071963  0.83565931  0.32041340     0.76400
O3          O  0.30595983  0.90614486  0.32083937    -0.62000
O4          O  0.28363907  0.91948665  0.35901014    -0.52900
C5          C  0.24915842  0.95472700  0.28611507     0.69100
O6          O  0.25054544  0.92294431  0.27973403    -0.47800
C7          C  0.19016598  0.91225958  0.34613016     0.73800
O8          O  0.25009365  0.85461503  0.29914933    -0.59700
O9          O  0.21694875  0.91778714  0.35933221    -0.49800
O10         O  0.25111798  0.85215997  0.34280521    -0.56100
C11         C  0.31025060  0.91512844  0.34561601     0.84000
O12         O  0.24814039  0.96059093  0.31169350    -0.58000
O13         O  0.19413036  0.90379256  0.32122775    -0.61300
In14       In  0.24991622  0.61663576  0.32368616     1.36900
C15         C  0.25046304  0.68565650  0.32042206     0.76400
O16         O  0.19399679  0.61760621  0.32145615    -0.62000
O17         O  0.21693346  0.60301679  0.35933326    -0.52900
C18         C  0.24890149  0.56651792  0.28602202     0.69100
O19         O  0.25150109  0.59823779  0.27965867    -0.47800
C20         C  0.31014461  0.60642220  0.34535292     0.73800
O21         O  0.24883831  0.66671319  0.29916858    -0.59700
O22         O  0.28355059  0.60177304  0.35875496    -0.49800
O23         O  0.25186708  0.66913875  0.34277955    -0.56100
C24         C  0.19011824  0.60875419  0.34629163     0.84000
O25         O  0.24659188  0.56078505  0.31154950    -0.58000
O26         O  0.30581269  0.61556840  0.32063019    -0.61300
In27       In  0.99968866  0.61638212  0.41875591     1.36900
C28         C  0.49555404  0.68538500  0.42324601     0.76400
O29         O  0.05580723  0.61690327  0.42166521    -0.62000
O30         O  0.03326192  0.60493713  0.38312218    -0.52900
C31         C  0.99910931  0.56581316  0.45600024     0.69100
O32         O  0.49808801  0.59753481  0.46262681    -0.47800
C33         C  0.44061462  0.60485696  0.39561579     0.73800
O34         O  0.00091870  0.66620878  0.44392546    -0.59700
O35         O  0.46762594  0.60153520  0.38254616    -0.49800
O36         O  0.49270869  0.66916392  0.40084384    -0.56100
C37         C  0.05996626  0.60937618  0.39661509     0.84000
O38         O  0.00046466  0.56026121  0.43040085    -0.58000
O39         O  0.44408821  0.61281290  0.42071652    -0.61300
In40       In  0.49968026  0.90445339  0.41877510     1.36900
C41         C  0.49507853  0.83539478  0.42331260     0.76400
O42         O  0.44417621  0.90881322  0.42092810    -0.62000
O43         O  0.46771791  0.91910767  0.38255569    -0.52900
C44         C  0.49939698  0.95503530  0.45608797     0.69100
O45         O  0.99774534  0.92331732  0.46267361    -0.47800
C46         C  0.05992469  0.91141510  0.39639954     0.73800
O47         O  0.50105214  0.85458908  0.44390226    -0.59700
O48         O  0.03320291  0.91580568  0.38296873    -0.49800
O49         O  0.99166460  0.85163356  0.40099093    -0.56100
C50         C  0.44072274  0.91641590  0.39576788     0.84000
O51         O  0.50141337  0.96055861  0.43051443    -0.58000
O52         O  0.05578604  0.90397969  0.42147489    -0.61300
In53       In  0.24903262  0.40452231  0.16878561     1.36900
C54         C  0.24848263  0.33543606  0.17298714     0.78000
O55         O  0.19311301  0.40446022  0.17149887    -0.62000
O56         O  0.21546368  0.42034556  0.13391237    -0.52900
C57         C  0.24946763  0.45517999  0.20606617     0.69100
O58         O  0.24771860  0.42347879  0.21265230    -0.47800
C59         C  0.30868225  0.41230194  0.14569957     0.73800
O60         O  0.25123010  0.35474383  0.19396326    -0.59700
O61         O  0.28173925  0.41685960  0.13255180    -0.49800
O62         O  0.24596710  0.35163890  0.15054138    -0.56100
C63         C  0.18883169  0.41478084  0.14705154     0.84000
O64         O  0.25123413  0.46068228  0.18048459    -0.58000
O65         O  0.30497749  0.40450389  0.17076107    -0.61300
In66       In  0.24913368  0.11617190  0.16860603     1.36900
C67         C  0.24881200  0.18522838  0.17284177     0.76400
O68         O  0.30512156  0.11587849  0.17087385    -0.62000
O69         O  0.28193501  0.10410554  0.13248486    -0.52900
C70         C  0.24934971  0.06559383  0.20584219     0.69100
O71         O  0.24867639  0.09733006  0.21244022    -0.47800
C72         C  0.18878826  0.10574736  0.14692450     0.73800
O73         O  0.25056095  0.16591076  0.19385937    -0.59700
O74         O  0.21537922  0.10036070  0.13373795    -0.49800
O75         O  0.24728340  0.16905016  0.15031519    -0.56100
C76         C  0.30886257  0.10836799  0.14576428     0.84000
O77         O  0.25017264  0.05998965  0.18023157    -0.58000
O78         O  0.19317258  0.11600311  0.17139070    -0.61300
In79       In  0.49942183  0.11662643  0.07347973     1.36900
C80         C  0.50373091  0.18570368  0.06903275     0.76400
O81         O  0.44337648  0.11764161  0.07090379    -0.62000
O82         O  0.46587826  0.10407914  0.10907191    -0.52900
C83         C  0.49864080  0.06653642  0.03584772     0.69100
O84         O  0.00104747  0.09826012  0.02943055    -0.47800
C85         C  0.05836545  0.10396928  0.09654597     0.73800
O86         O  0.49807629  0.16650784  0.04839950    -0.59700
O87         O  0.03135818  0.10250958  0.10983280    -0.49800
O88         O  0.00712579  0.16945164  0.09135249    -0.56100
C89         C  0.43918386  0.10912131  0.09574593     0.84000
O90         O  0.49654546  0.06082033  0.06138825    -0.58000
O91         O  0.05498750  0.11072671  0.07122128    -0.61300
In92       In  0.99933821  0.40463433  0.07350823     1.36900
C93         C  0.50337535  0.33568994  0.06898349     0.76400
O94         O  0.05498570  0.41005221  0.07135424    -0.62000
O95         O  0.03142464  0.41859224  0.10992093    -0.52900
C96         C  0.99891524  0.45458998  0.03584812     0.69100
O97         O  0.50106123  0.42286271  0.02946305    -0.47800
C98         C  0.43904020  0.41179305  0.09567986     0.73800
O99         O  0.99809989  0.35485783  0.04829580    -0.59700
O100        O  0.46570843  0.41764258  0.10889924    -0.49800
O101        O  0.50636488  0.35191579  0.09137228    -0.56100
C102        C  0.05843218  0.41683294  0.09667105     0.84000
O103        O  0.99697353  0.46039185  0.06138290    -0.58000
O104        O  0.44328032  0.40270398  0.07097546    -0.61300
C105        C  0.51358524  0.24271458  0.09189912    -0.14500
C106        C  0.50576414  0.22404552  0.06783031     0.07600
C107        C  0.99889013  0.24242087  0.04341214    -0.14500
C108        C  0.99879091  0.27887757  0.04338754    -0.14500
C109        C  0.50554626  0.29739122  0.06778892     0.07600
C110        C  0.51347661  0.27889034  0.09187743    -0.14500
H111        H  0.51924906  0.22934097  0.11098569     0.11600
H112        H  0.99292149  0.22864655  0.02454581     0.11600
H113        H  0.99275363  0.29252553  0.02450788     0.11600
H114        H  0.51907786  0.29238708  0.11094524     0.11600
C115        C  0.15182755  0.09664521  0.10588986    -0.14500
C116        C  0.15529097  0.10143040  0.13446886     0.07600
C117        C  0.12647081  0.10392238  0.15075083    -0.14500
C118        C  0.09474969  0.10292545  0.13851332    -0.14500
C119        C  0.09138693  0.09995844  0.10976827     0.07600
C120        C  0.12014491  0.09615445  0.09361929    -0.14500
H121        H  0.17364169  0.09455542  0.09289104     0.11600
H122        H  0.12846679  0.10744369  0.17285852     0.11600
H123        H  0.07294503  0.10595920  0.15140144     0.11600
H124        H  0.11817867  0.09370063  0.07141628     0.11600
C125        C  0.40261423  0.10348532  0.13710330    -0.14500
C126        C  0.40580836  0.10617024  0.10835886     0.07600
C127        C  0.37683148  0.10758255  0.09191341    -0.14500
C128        C  0.34521029  0.10714007  0.10405295    -0.14500
C129        C  0.34206473  0.10577136  0.13285720     0.07600
C130        C  0.37101481  0.10358089  0.14926117    -0.14500
H131        H  0.42455547  0.10231411  0.15023831     0.11600
H132        H  0.37862027  0.10953543  0.06968716     0.11600
H133        H  0.32326736  0.10891388  0.09096591     0.11600
H134        H  0.36923216  0.10235946  0.17152218     0.11600
C135        C  0.15197413  0.42380139  0.10600392    -0.14500
C136        C  0.15538834  0.41899962  0.13457752     0.07600
C137        C  0.12655622  0.41645473  0.15085772    -0.14500
C138        C  0.09484469  0.41751404  0.13863159    -0.14500
C139        C  0.09150510  0.42059408  0.10989763     0.07600
C140        C  0.12029556  0.42434987  0.09374324    -0.14500
H141        H  0.17380648  0.42590405  0.09300885     0.11600
H142        H  0.12852812  0.41289692  0.17296108     0.11600
H143        H  0.07301495  0.41448830  0.15151646     0.11600
H144        H  0.11834431  0.42686833  0.07154519     0.11600
C145        C  0.34502533  0.41369155  0.10393243    -0.14500
C146        C  0.34188072  0.41490086  0.13274417     0.07600
C147        C  0.37084889  0.41687895  0.14916118    -0.14500
C148        C  0.40245343  0.41698396  0.13702291    -0.14500
C149        C  0.40564931  0.41451881  0.10827166     0.07600
C150        C  0.37666627  0.41322018  0.09180480    -0.14500
H151        H  0.32306674  0.41206746  0.09083585     0.11600
H152        H  0.36907367  0.41794982  0.17142610     0.11600
H153        H  0.42439361  0.41801586  0.15017547     0.11600
H154        H  0.37846658  0.41142065  0.06957277     0.11600
C155        C  0.25153281  0.27855770  0.19880557    -0.14500
C156        C  0.24827860  0.29701988  0.17391536     0.07600
C157        C  0.24498365  0.27840571  0.14915802    -0.14500
C158        C  0.24511399  0.24226294  0.14911570    -0.14500
C159        C  0.24849452  0.22363117  0.17383423     0.07600
C160        C  0.25161625  0.24206426  0.19876706    -0.14500
H161        H  0.25411371  0.29228398  0.21818992     0.11600
H162        H  0.24238654  0.29180766  0.12963854     0.11600
H163        H  0.24258836  0.22887750  0.12957087     0.11600
H164        H  0.25425608  0.22831792  0.21812152     0.11600
C165        C  0.99921779  0.01833263  0.46773937    -0.14500
C166        C  0.49895184  0.98354367  0.47649848     0.07600
C167        C  0.49828096  0.97633162  0.50485451    -0.14500
C168        C  0.49804693  0.00337510  0.02408207    -0.14500
C169        C  0.49848716  0.03815507  0.01533948     0.07600
C170        C  0.99900400  0.04539510  0.48698018    -0.14500
H171        H  0.99961740  0.02465128  0.44598097     0.11600
H172        H  0.49806941  0.94979589  0.51217964     0.11600
H173        H  0.49769010  0.99703336  0.04583446     0.11600
H174        H  0.99926481  0.07193788  0.97967853     0.11600
C175        C  0.99957563  0.50255540  0.46768880    -0.14500
C176        C  0.99880935  0.53734740  0.47641131     0.07600
C177        C  0.49789961  0.54462988  0.00474699    -0.14500
C178        C  0.49786594  0.51765098  0.02400265    -0.14500
C179        C  0.99876309  0.48287518  0.01530417     0.07600
C180        C  0.99958035  0.47555099  0.48696351    -0.14500
H181        H  0.00023187  0.49619496  0.44594225     0.11600
H182        H  0.49730194  0.57117591  0.01203637     0.11600
H183        H  0.49724630  0.52404400  0.04574361     0.11600
H184        H  0.00022376  0.44899504  0.47970541     0.11600
C185        C  0.50062626  0.74218993  0.44874814    -0.14500
C186        C  0.49308839  0.72368436  0.42449922     0.07600
C187        C  0.98412514  0.74220614  0.40065284    -0.14500
C188        C  0.98394045  0.77840933  0.40068179    -0.14500
C189        C  0.49274726  0.79705568  0.42455097     0.07600
C190        C  0.50046914  0.77864069  0.44877087    -0.14500
H191        H  0.50743160  0.72853234  0.46745054     0.11600
H192        H  0.97782434  0.72870849  0.38173053     0.11600
H193        H  0.97753224  0.79181994  0.38177205     0.11600
H194        H  0.50717552  0.79238538  0.46748808     0.11600
C195        C  0.24465712  0.50355143  0.27391427    -0.14500
C196        C  0.24876809  0.53818731  0.26544640     0.07600
C197        C  0.25307592  0.54532739  0.23729844    -0.14500
C198        C  0.25332803  0.51831480  0.21800553    -0.14500
C199        C  0.24931598  0.48366562  0.22650511     0.07600
C200        C  0.24494450  0.47655747  0.25463977    -0.14500
H201        H  0.24125985  0.49728081  0.29549146     0.11600
H202        H  0.25634946  0.57175336  0.23020831     0.11600
H203        H  0.25673891  0.52455189  0.19642612     0.11600
H204        H  0.24169724  0.45013578  0.26175185     0.11600
C205        C  0.12786280  0.60587322  0.34283782    -0.14500
C206        C  0.15690600  0.60635702  0.35921391     0.07600
C207        C  0.15389532  0.60626995  0.38805550    -0.14500
C208        C  0.12233030  0.60677669  0.40030344    -0.14500
C209        C  0.09328482  0.60682855  0.38389923     0.07600
C210        C  0.09632661  0.60581126  0.35507590    -0.14500
H211        H  0.12953331  0.60588296  0.32054860     0.11600
H212        H  0.17592762  0.60679203  0.40111940     0.11600
H213        H  0.12064590  0.60749502  0.42258024     0.11600
H214        H  0.07432833  0.60587522  0.34196988     0.11600
C215        C  0.34701878  0.59994012  0.38659369    -0.14500
C216        C  0.34359289  0.60259534  0.35785985     0.07600
C217        C  0.37240346  0.60342723  0.34143473    -0.14500
C218        C  0.40414518  0.60254667  0.35365141    -0.14500
C219        C  0.40749171  0.60135983  0.38247787     0.07600
C220        C  0.37868965  0.59956482  0.39880333    -0.14500
H221        H  0.32520580  0.59930495  0.39970737     0.11600
H222        H  0.37039611  0.60540518  0.31921164     0.11600
H223        H  0.42599975  0.60410560  0.34064012     0.11600
H224        H  0.38063869  0.59860212  0.42108086     0.11600
C225        C  0.24658439  0.01773447  0.27396659    -0.14500
C226        C  0.24886265  0.98295285  0.26547139     0.07600
C227        C  0.25108182  0.97552632  0.23719523    -0.14500
C228        C  0.25118145  0.00240986  0.21780145    -0.14500
C229        C  0.24910329  0.03720518  0.22633411     0.07600
C230        C  0.24670821  0.04459597  0.25459111    -0.14500
H231        H  0.24478313  0.02422179  0.29564167     0.11600
H232        H  0.25285293  0.94897430  0.23007945     0.11600
H233        H  0.25299668  0.99595900  0.19612542     0.11600
H234        H  0.24496120  0.07114272  0.26172887     0.11600
C235        C  0.40422223  0.91922765  0.35388811    -0.14500
C236        C  0.40761463  0.92016203  0.38271271     0.07600
C237        C  0.37884990  0.92188375  0.39908005    -0.14500
C238        C  0.34715568  0.92156912  0.38689701    -0.14500
C239        C  0.34368996  0.91908088  0.35815353     0.07600
C240        C  0.37247056  0.91844224  0.34170166    -0.14500
H241        H  0.42603992  0.91776432  0.34084113     0.11600
H242        H  0.38083587  0.92266738  0.42135926     0.11600
H243        H  0.32535992  0.92207317  0.40002592     0.11600
H244        H  0.37042974  0.91662408  0.31947117     0.11600
C245        C  0.12789269  0.91540803  0.34258984    -0.14500
C246        C  0.15691435  0.91446808  0.35898313     0.07600
C247        C  0.15386185  0.91400939  0.38781346    -0.14500
C248        C  0.12229292  0.91349291  0.40003527    -0.14500
C249        C  0.09325314  0.91394280  0.38363643     0.07600
C250        C  0.09632952  0.91544574  0.35482012    -0.14500
H251        H  0.12960126  0.91581570  0.32030698     0.11600
H252        H  0.17586764  0.91310863  0.40089124     0.11600
H253        H  0.12060088  0.91237719  0.42230270     0.11600
H254        H  0.07433255  0.91577876  0.34171180     0.11600
C255        C  0.25028924  0.77885839  0.29473156    -0.14500
C256        C  0.25086592  0.79730496  0.31973595     0.07600
C257        C  0.25141214  0.77875829  0.34465410    -0.14500
C258        C  0.25132412  0.74258915  0.34466200    -0.14500
C259        C  0.25066137  0.72401534  0.31975089     0.07600
C260        C  0.25016385  0.74243709  0.29474054    -0.14500
H261        H  0.24986485  0.79255528  0.27524116     0.11600
H262        H  0.25185551  0.79221559  0.36425801     0.11600
H263        H  0.25170171  0.72915286  0.36426940     0.11600
H264        H  0.24967252  0.72871577  0.27525161     0.11600
In265      In  0.25009502  0.90466268  0.82376551     1.36900
C266        C  0.25071963  0.83565937  0.82041347     0.76400
O267        O  0.30595981  0.90614491  0.82083932    -0.62000
O268        O  0.28363917  0.91948675  0.85901017    -0.52900
C269        C  0.24915835  0.95472699  0.78611508     0.69100
O270        O  0.25054533  0.92294423  0.77973407    -0.47800
C271        C  0.19016598  0.91225959  0.84613017     0.73800
O272        O  0.25009372  0.85461509  0.79914939    -0.59700
O273        O  0.21694875  0.91778700  0.85933232    -0.49800
O274        O  0.25111803  0.85215999  0.84280531    -0.56100
C275        C  0.31025065  0.91512855  0.84561594     0.84000
O276        O  0.24814048  0.96059092  0.81169349    -0.58000
O277        O  0.19413037  0.90379262  0.82122778    -0.61300
In278      In  0.24991611  0.61663574  0.82368615     1.36900
C279        C  0.25046290  0.68565646  0.82042207     0.76400
O280        O  0.19399656  0.61760622  0.82145618    -0.62000
O281        O  0.21693349  0.60301681  0.85933328    -0.52900
C282        C  0.24890157  0.56651796  0.78602197     0.69100
O283        O  0.25150100  0.59823775  0.77965857    -0.47800
C284        C  0.31014455  0.60642212  0.84535288     0.73800
O285        O  0.24883833  0.66671319  0.79916855    -0.59700
O286        O  0.28355053  0.60177291  0.85875491    -0.49800
O287        O  0.25186691  0.66913872  0.84277958    -0.56100
C288        C  0.19011812  0.60875427  0.84629165     0.84000
O289        O  0.24659176  0.56078498  0.81154953    -0.58000
O290        O  0.30581254  0.61556850  0.82063023    -0.61300
In291      In  0.99968863  0.61638221  0.91875592     1.36900
C292        C  0.49555402  0.68538511  0.92324602     0.76400
O293        O  0.05580723  0.61690331  0.92166520    -0.62000
O294        O  0.03326192  0.60493725  0.88312228    -0.52900
C295        C  0.99910923  0.56581317  0.95600020     0.69100
O296        O  0.49808800  0.59753489  0.96262676    -0.47800
C297        C  0.44061450  0.60485696  0.89561584     0.73800
O298        O  0.00091874  0.66620885  0.94392546    -0.59700
O299        O  0.46762592  0.60153533  0.88254625    -0.49800
O300        O  0.49270867  0.66916400  0.90084384    -0.56100
C301        C  0.05996631  0.60937621  0.89661519     0.84000
O302        O  0.00046475  0.56026137  0.93040085    -0.58000
O303        O  0.44408799  0.61281294  0.92071649    -0.61300
In304      In  0.49968030  0.90445344  0.91877515     1.36900
C305        C  0.49507857  0.83539486  0.92331264     0.76400
O306        O  0.44417623  0.90881335  0.92092816    -0.62000
O307        O  0.46771798  0.91910757  0.88255571    -0.52900
C308        C  0.49939699  0.95503531  0.95608795     0.69100
O309        O  0.99774514  0.92331733  0.96267363    -0.47800
C310        C  0.05992473  0.91141493  0.89639960     0.73800
O311        O  0.50105216  0.85458910  0.94390233    -0.59700
O312        O  0.03320293  0.91580575  0.88296878    -0.49800
O313        O  0.99166463  0.85163369  0.90099096    -0.56100
C314        C  0.44072279  0.91641578  0.89576788     0.84000
O315        O  0.50141342  0.96055866  0.93051444    -0.58000
O316        O  0.05578613  0.90397968  0.92147499    -0.61300
In317      In  0.24903265  0.40452229  0.66878562     1.36900
C318        C  0.24848266  0.33543605  0.67298712     0.78000
O319        O  0.19311301  0.40446015  0.67149893    -0.62000
O320        O  0.21546368  0.42034551  0.63391242    -0.52900
C321        C  0.24946754  0.45517997  0.70606608     0.69100
O322        O  0.24771873  0.42347885  0.71265225    -0.47800
C323        C  0.30868227  0.41230209  0.64569951     0.73800
O324        O  0.25123013  0.35474381  0.69396326    -0.59700
O325        O  0.28173923  0.41685959  0.63255174    -0.49800
O326        O  0.24596711  0.35163891  0.65054133    -0.56100
C327        C  0.18883168  0.41478100  0.64705168     0.84000
O328        O  0.25123403  0.46068224  0.68048442    -0.58000
O329        O  0.30497754  0.40450391  0.67076096    -0.61300
In330      In  0.24913367  0.11617189  0.66860602     1.36900
C331        C  0.24881193  0.18522846  0.67284173     0.76400
O332        O  0.30512162  0.11587859  0.67087380    -0.62000
O333        O  0.28193489  0.10410542  0.63248486    -0.52900
C334        C  0.24934964  0.06559382  0.70584216     0.69100
O335        O  0.24867642  0.09733014  0.71244020    -0.47800
C336        C  0.18878830  0.10574753  0.64692454     0.73800
O337        O  0.25056084  0.16591083  0.69385934    -0.59700
O338        O  0.21537922  0.10036067  0.63373792    -0.49800
O339        O  0.24728351  0.16905022  0.65031516    -0.56100
C340        C  0.30886252  0.10836805  0.64576425     0.84000
O341        O  0.25017264  0.05998957  0.68023161    -0.58000
O342        O  0.19317258  0.11600318  0.67139076    -0.61300
In343      In  0.49942178  0.11662638  0.57347974     1.36900
C344        C  0.50373089  0.18570365  0.56903271     0.76400
O345        O  0.44337638  0.11764133  0.57090384    -0.62000
O346        O  0.46587825  0.10407918  0.60907192    -0.52900
C347        C  0.49864081  0.06653641  0.53584768     0.69100
O348        O  0.00104752  0.09826018  0.52943051    -0.47800
C349        C  0.05836547  0.10396937  0.59654603     0.73800
O350        O  0.49807626  0.16650773  0.54839949    -0.59700
O351        O  0.03135815  0.10250951  0.60983282    -0.49800
O352        O  0.00712583  0.16945162  0.59135245    -0.56100
C353        C  0.43918379  0.10912139  0.59574599     0.84000
O354        O  0.49654544  0.06082028  0.56138819    -0.58000
O355        O  0.05498755  0.11072665  0.57122132    -0.61300
In356      In  0.99933822  0.40463436  0.57350822     1.36900
C357        C  0.50337525  0.33568997  0.56898349     0.76400
O358        O  0.05498571  0.41005214  0.57135430    -0.62000
O359        O  0.03142465  0.41859239  0.60992092    -0.52900
C360        C  0.99891527  0.45459001  0.53584813     0.69100
O361        O  0.50106135  0.42286266  0.52946322    -0.47800
C362        C  0.43904018  0.41179308  0.59567989     0.73800
O363        O  0.99809983  0.35485795  0.54829579    -0.59700
O364        O  0.46570838  0.41764263  0.60889929    -0.49800
O365        O  0.50636496  0.35191578  0.59137228    -0.56100
C366        C  0.05843220  0.41683291  0.59667106     0.84000
O367        O  0.99697356  0.46039198  0.56138288    -0.58000
O368        O  0.44328041  0.40270406  0.57097551    -0.61300
C369        C  0.51358508  0.24271468  0.59189914    -0.14500
C370        C  0.50576403  0.22404553  0.56783037     0.07600
C371        C  0.99889019  0.24242101  0.54341213    -0.14500
C372        C  0.99879099  0.27887742  0.54338767    -0.14500
C373        C  0.50554619  0.29739122  0.56778892     0.07600
C374        C  0.51347648  0.27889013  0.59187743    -0.14500
H375        H  0.51924895  0.22933995  0.61098687     0.11600
H376        H  0.99292151  0.22864636  0.52454558     0.11600
H377        H  0.99275337  0.29252644  0.52450670     0.11600
H378        H  0.51907780  0.29238796  0.61094643     0.11600
C379        C  0.15182742  0.09664515  0.60589010    -0.14500
C380        C  0.15529122  0.10143031  0.63446879     0.07600
C381        C  0.12647112  0.10392248  0.65075078    -0.14500
C382        C  0.09474964  0.10292551  0.63851349    -0.14500
C383        C  0.09138709  0.09995844  0.60976835     0.07600
C384        C  0.12014503  0.09615422  0.59361902    -0.14500
H385        H  0.17364406  0.09455499  0.59288966     0.11600
H386        H  0.12846707  0.10744407  0.67285855     0.11600
H387        H  0.07294724  0.10595892  0.65140042     0.11600
H388        H  0.11817857  0.09370007  0.57141822     0.11600
C389        C  0.40261416  0.10348535  0.63710324    -0.14500
C390        C  0.40580838  0.10617024  0.60835914     0.07600
C391        C  0.37683142  0.10758263  0.59191308    -0.14500
C392        C  0.34521037  0.10714013  0.60405308    -0.14500
C393        C  0.34206450  0.10577132  0.63285689     0.07600
C394        C  0.37101468  0.10358092  0.64926133    -0.14500
H395        H  0.42455576  0.10231409  0.65023884     0.11600
H396        H  0.37862023  0.10953551  0.56968992     0.11600
H397        H  0.32326574  0.10891442  0.59096458     0.11600
H398        H  0.36923206  0.10235898  0.67152006     0.11600
C399        C  0.15197408  0.42380145  0.60600411    -0.14500
C400        C  0.15538835  0.41899955  0.63457755     0.07600
C401        C  0.12655612  0.41645462  0.65085790    -0.14500
C402        C  0.09484483  0.41751399  0.63863153    -0.14500
C403        C  0.09150499  0.42059405  0.60989779     0.07600
C404        C  0.12029561  0.42434998  0.59374333    -0.14500
H405        H  0.17380683  0.42590424  0.59300875     0.11600
H406        H  0.12852818  0.41289637  0.67296044     0.11600
H407        H  0.07301333  0.41448776  0.65151754     0.11600
H408        H  0.11834454  0.42686848  0.57154573     0.11600
C409        C  0.34502537  0.41369165  0.60393247    -0.14500
C410        C  0.34188078  0.41490082  0.63274416     0.07600
C411        C  0.37084905  0.41687892  0.64916131    -0.14500
C412        C  0.40245329  0.41698386  0.63702285    -0.14500
C413        C  0.40564942  0.41451896  0.60827179     0.07600
C414        C  0.37666631  0.41322023  0.59180487    -0.14500
H415        H  0.32306690  0.41206775  0.59083590     0.11600
H416        H  0.36907383  0.41794954  0.67142574     0.11600
H417        H  0.42439523  0.41801618  0.65017656     0.11600
H418        H  0.37846664  0.41142085  0.56957302     0.11600
C419        C  0.25153284  0.27855750  0.69880557    -0.14500
C420        C  0.24827863  0.29701986  0.67391525     0.07600
C421        C  0.24498370  0.27840555  0.64915802    -0.14500
C422        C  0.24511404  0.24226314  0.64911573    -0.14500
C423        C  0.24849453  0.22363115  0.67383420     0.07600
C424        C  0.25161624  0.24206436  0.69876685    -0.14500
H425        H  0.25411374  0.29228411  0.71819013     0.11600
H426        H  0.24238642  0.29180868  0.62963730     0.11600
H427        H  0.24258822  0.22887640  0.62956957     0.11600
H428        H  0.25425655  0.22831667  0.71812292     0.11600
C429        C  0.99921774  0.01833246  0.96773938    -0.14500
C430        C  0.49895177  0.98354359  0.97649842     0.07600
C431        C  0.49828096  0.97633146  0.00485427    -0.14500
C432        C  0.49804698  0.00337522  0.52408186    -0.14500
C433        C  0.49848719  0.03815505  0.51533970     0.07600
C434        C  0.99900396  0.04539512  0.98698015    -0.14500
H435        H  0.99961741  0.02465126  0.94598128     0.11600
H436        H  0.49806945  0.94979594  0.01217958     0.11600
H437        H  0.49769013  0.99703255  0.54583742     0.11600
H438        H  0.99926536  0.07193949  0.47967835     0.11600
C439        C  0.99957565  0.50255568  0.96768877    -0.14500
C440        C  0.99880933  0.53734759  0.97641141     0.07600
C441        C  0.49789953  0.54463014  0.50474706    -0.14500
C442        C  0.49786588  0.51765071  0.52400262    -0.14500
C443        C  0.99876309  0.48287509  0.51530416     0.07600
C444        C  0.99958036  0.47555087  0.98696347    -0.14500
H445        H  0.00023218  0.49619546  0.94594311     0.11600
H446        H  0.49730225  0.57117206  0.51203526     0.11600
H447        H  0.49724563  0.52404422  0.54574380     0.11600
H448        H  0.00022374  0.44899711  0.97970578     0.11600
C449        C  0.50062634  0.74219010  0.94874824    -0.14500
C450        C  0.49308836  0.72368455  0.92449920     0.07600
C451        C  0.98412515  0.74220638  0.90065281    -0.14500
C452        C  0.98394052  0.77840940  0.90068184    -0.14500
C453        C  0.49274731  0.79705584  0.92455094     0.07600
C454        C  0.50046915  0.77864082  0.94877080    -0.14500
H455        H  0.50743164  0.72853269  0.96745014     0.11600
H456        H  0.97782428  0.72870834  0.88173020     0.11600
H457        H  0.97753209  0.79182077  0.88177131     0.11600
H458        H  0.50717584  0.79238614  0.96748868     0.11600
C459        C  0.24465709  0.50355160  0.77391415    -0.14500
C460        C  0.24876795  0.53818703  0.76544662     0.07600
C461        C  0.25307595  0.54532787  0.73729823    -0.14500
C462        C  0.25332796  0.51831462  0.71800570    -0.14500
C463        C  0.24931597  0.48366593  0.72650480     0.07600
C464        C  0.24494445  0.47655719  0.75463986    -0.14500
H465        H  0.24125906  0.49728004  0.79549276     0.11600
H466        H  0.25634911  0.57174955  0.73020944     0.11600
H467        H  0.25673870  0.52455281  0.69642401     0.11600
H468        H  0.24169771  0.45013894  0.76175088     0.11600
C469        C  0.12786246  0.60587325  0.84283745    -0.14500
C470        C  0.15690585  0.60635707  0.85921414     0.07600
C471        C  0.15389507  0.60627007  0.88805546    -0.14500
C472        C  0.12233018  0.60677670  0.90030357    -0.14500
C473        C  0.09328455  0.60682869  0.88389907     0.07600
C474        C  0.09632684  0.60581121  0.85507627    -0.14500
H475        H  0.12953310  0.60588251  0.82055148     0.11600
H476        H  0.17592780  0.60679236  0.90111961     0.11600
H477        H  0.12064576  0.60749513  0.92257980     0.11600
H478        H  0.07432478  0.60587530  0.84196762     0.11600
C479        C  0.34701872  0.59994002  0.88659349    -0.14500
C480        C  0.34359294  0.60259546  0.85785977     0.07600
C481        C  0.37240367  0.60342729  0.84143460    -0.14500
C482        C  0.40414514  0.60254674  0.85365145    -0.14500
C483        C  0.40749178  0.60135992  0.88247759     0.07600
C484        C  0.37868965  0.59956471  0.89880341    -0.14500
H485        H  0.32520623  0.59930532  0.89970719     0.11600
H486        H  0.37039611  0.60540548  0.81921154     0.11600
H487        H  0.42600163  0.60410580  0.84063920     0.11600
H488        H  0.38063839  0.59860197  0.92107848     0.11600
C489        C  0.24658438  0.01773469  0.77396688    -0.14500
C490        C  0.24886267  0.98295276  0.76547115     0.07600
C491        C  0.25108180  0.97552613  0.73719518    -0.14500
C492        C  0.25118133  0.00240990  0.71780146    -0.14500
C493        C  0.24910325  0.03720545  0.72633420     0.07600
C494        C  0.24670820  0.04459560  0.75459083    -0.14500
H495        H  0.24478375  0.02422052  0.79563866     0.11600
H496        H  0.25285301  0.94897522  0.73007970     0.11600
H497        H  0.25299611  0.99595898  0.69612555     0.11600
H498        H  0.24496110  0.07114635  0.76172992     0.11600
C499        C  0.40422227  0.91922748  0.85388810    -0.14500
C500        C  0.40761470  0.92016204  0.88271268     0.07600
C501        C  0.37884996  0.92188380  0.89908003    -0.14500
C502        C  0.34715576  0.92156924  0.88689698    -0.14500
C503        C  0.34369000  0.91908087  0.85815352     0.07600
C504        C  0.37247058  0.91844215  0.84170161    -0.14500
H505        H  0.42603996  0.91776395  0.84084107     0.11600
H506        H  0.38083596  0.92266762  0.92135919     0.11600
H507        H  0.32535983  0.92207353  0.90002602     0.11600
H508        H  0.37042976  0.91662383  0.81947134     0.11600
C509        C  0.12789289  0.91540803  0.84258964    -0.14500
C510        C  0.15691449  0.91446810  0.85898335     0.07600
C511        C  0.15386203  0.91400931  0.88781338    -0.14500
C512        C  0.12229298  0.91349294  0.90003559    -0.14500
C513        C  0.09325325  0.91394277  0.88363639     0.07600
C514        C  0.09632944  0.91544587  0.85482029    -0.14500
H515        H  0.12960094  0.91581574  0.82031001     0.11600
H516        H  0.17586777  0.91310862  0.90089149     0.11600
H517        H  0.12060119  0.91237689  0.92230011     0.11600
H518        H  0.07433415  0.91577905  0.84171258     0.11600
C519        C  0.25028920  0.77885839  0.79473167    -0.14500
C520        C  0.25086579  0.79730505  0.81973613     0.07600
C521        C  0.25141209  0.77875807  0.84465407    -0.14500
C522        C  0.25132399  0.74258915  0.84466198    -0.14500
C523        C  0.25066142  0.72401528  0.81975093     0.07600
C524        C  0.25016373  0.74243712  0.79474063    -0.14500
H525        H  0.24986445  0.79255534  0.77524123     0.11600
H526        H  0.25185512  0.79221627  0.86425943     0.11600
H527        H  0.25170199  0.72915204  0.86426997     0.11600
H528        H  0.24967279  0.72871561  0.77525148     0.11600
In529      In  0.75009500  0.90466268  0.32376545     1.36900
C530        C  0.75071957  0.83565930  0.32041340     0.76400
O531        O  0.80595978  0.90614482  0.32083937    -0.62000
O532        O  0.78363915  0.91948663  0.35901011    -0.52900
C533        C  0.74915839  0.95472702  0.28611507     0.69100
O534        O  0.75054539  0.92294432  0.27973403    -0.47800
C535        C  0.69016604  0.91225958  0.34613023     0.73800
O536        O  0.75009361  0.85461502  0.29914932    -0.59700
O537        O  0.71694883  0.91778716  0.35933224    -0.49800
O538        O  0.75111794  0.85215996  0.34280521    -0.56100
C539        C  0.81025065  0.91512845  0.34561595     0.84000
O540        O  0.74814056  0.96059094  0.31169349    -0.58000
O541        O  0.69413041  0.90379261  0.32122782    -0.61300
In542      In  0.74991617  0.61663578  0.32368615     1.36900
C543        C  0.75046308  0.68565650  0.32042206     0.76400
O544        O  0.69399667  0.61760621  0.32145623    -0.62000
O545        O  0.71693353  0.60301680  0.35933326    -0.52900
C546        C  0.74890143  0.56651792  0.28602202     0.69100
O547        O  0.75150103  0.59823779  0.27965867    -0.47800
C548        C  0.81014461  0.60642226  0.34535294     0.73800
O549        O  0.74883839  0.66671319  0.29916857    -0.59700
O550        O  0.78355061  0.60177297  0.35875491    -0.49800
O551        O  0.75186693  0.66913876  0.34277956    -0.56100
C552        C  0.69011819  0.60875420  0.34629164     0.84000
O553        O  0.74659185  0.56078506  0.31154951    -0.58000
O554        O  0.80581260  0.61556852  0.32063026    -0.61300
In555      In  0.49968865  0.61638211  0.41875589     1.36900
C556        C  0.99555401  0.68538500  0.42324600     0.76400
O557        O  0.55580722  0.61690327  0.42166523    -0.62000
O558        O  0.53326193  0.60493712  0.38312217    -0.52900
C559        C  0.49910921  0.56581311  0.45600024     0.69100
O560        O  0.99808807  0.59753496  0.46262682    -0.47800
C561        C  0.94061458  0.60485691  0.39561583     0.73800
O562        O  0.50091869  0.66620876  0.44392547    -0.59700
O563        O  0.96762592  0.60153525  0.38254626    -0.49800
O564        O  0.99270860  0.66916392  0.40084384    -0.56100
C565        C  0.55996628  0.60937619  0.39661514     0.84000
O566        O  0.50046470  0.56026128  0.43040083    -0.58000
O567        O  0.94408818  0.61281287  0.42071653    -0.61300
In568      In  0.99968027  0.90445339  0.41877510     1.36900
C569        C  0.99507853  0.83539478  0.42331265     0.76400
O570        O  0.94417628  0.90881338  0.42092814    -0.62000
O571        O  0.96771789  0.91910763  0.38255566    -0.52900
C572        C  0.99939699  0.95503529  0.45608797     0.69100
O573        O  0.49774520  0.92331732  0.46267360    -0.47800
C574        C  0.55992466  0.91141501  0.39639953     0.73800
O575        O  0.00105214  0.85458907  0.44390229    -0.59700
O576        O  0.53320290  0.91580577  0.38296873    -0.49800
O577        O  0.49166470  0.85163355  0.40099088    -0.56100
C578        C  0.94072275  0.91641602  0.39576791     0.84000
O579        O  0.00141342  0.96055861  0.43051444    -0.58000
O580        O  0.55578601  0.90397977  0.42147494    -0.61300
In581      In  0.74903268  0.40452231  0.16878563     1.36900
C582        C  0.74848259  0.33543606  0.17298714     0.78000
O583        O  0.69311305  0.40446025  0.17149887    -0.62000
O584        O  0.71546375  0.42034551  0.13391240    -0.52900
C585        C  0.74946749  0.45517999  0.20606617     0.69100
O586        O  0.74771864  0.42347878  0.21265231    -0.47800
C587        C  0.80868236  0.41230190  0.14569952     0.73800
O588        O  0.75123005  0.35474382  0.19396327    -0.59700
O589        O  0.78173936  0.41685963  0.13255180    -0.49800
O590        O  0.74596727  0.35163890  0.15054136    -0.56100
C591        C  0.68883175  0.41478086  0.14705154     0.84000
O592        O  0.75123417  0.46068227  0.18048460    -0.58000
O593        O  0.80497754  0.40450393  0.17076102    -0.61300
In594      In  0.74913365  0.11617189  0.16860604     1.36900
C595        C  0.74881193  0.18522838  0.17284177     0.76400
O596        O  0.80512154  0.11587849  0.17087385    -0.62000
O597        O  0.78193495  0.10410554  0.13248487    -0.52900
C598        C  0.74934965  0.06559378  0.20584218     0.69100
O599        O  0.74867634  0.09733002  0.21244023    -0.47800
C600        C  0.68878825  0.10574735  0.14692446     0.73800
O601        O  0.75056090  0.16591077  0.19385938    -0.59700
O602        O  0.71537919  0.10036068  0.13373790    -0.49800
O603        O  0.74728334  0.16905016  0.15031519    -0.56100
C604        C  0.80886252  0.10836799  0.14576428     0.84000
O605        O  0.75017258  0.05998962  0.18023158    -0.58000
O606        O  0.69317253  0.11600309  0.17139065    -0.61300
In607      In  0.99942181  0.11662642  0.07347974     1.36900
C608        C  0.00373089  0.18570367  0.06903276     0.76400
O609        O  0.94337643  0.11764138  0.07090384    -0.62000
O610        O  0.96587816  0.10407924  0.10907192    -0.52900
C611        C  0.99864078  0.06653641  0.03584772     0.69100
O612        O  0.50104746  0.09826017  0.02943056    -0.47800
C613        C  0.55836553  0.10396941  0.09654597     0.73800
O614        O  0.99807624  0.16650784  0.04839950    -0.59700
O615        O  0.53135822  0.10250953  0.10983274    -0.49800
O616        O  0.50712595  0.16945163  0.09135247    -0.56100
C617        C  0.93918377  0.10912120  0.09574596     0.84000
O618        O  0.99654534  0.06082036  0.06138829    -0.58000
O619        O  0.55498756  0.11072687  0.07122130    -0.61300
In620      In  0.49933815  0.40463430  0.07350817     1.36900
C621        C  0.00337532  0.33568993  0.06898352     0.76400
O622        O  0.55498561  0.41005217  0.07135419    -0.62000
O623        O  0.53142465  0.41859221  0.10992080    -0.52900
C624        C  0.49891531  0.45458998  0.03584805     0.69100
O625        O  0.00106116  0.42286269  0.02946315    -0.47800
C626        C  0.93904032  0.41179317  0.09567987     0.73800
O627        O  0.49809987  0.35485776  0.04829573    -0.59700
O628        O  0.96570856  0.41764252  0.10889934    -0.49800
O629        O  0.00636497  0.35191575  0.09137231    -0.56100
C630        C  0.55843221  0.41683291  0.09667096     0.84000
O631        O  0.49697349  0.46039181  0.06138284    -0.58000
O632        O  0.94328046  0.40270412  0.07097547    -0.61300
C633        C  0.01358511  0.24271455  0.09189919    -0.14500
C634        C  0.00576405  0.22404549  0.06783032     0.07600
C635        C  0.49889003  0.24242095  0.04341211    -0.14500
C636        C  0.49879082  0.27887751  0.04338761    -0.14500
C637        C  0.00554622  0.29739116  0.06778905     0.07600
C638        C  0.01347652  0.27889034  0.09187750    -0.14500
H639        H  0.01924859  0.22934102  0.11098574     0.11600
H640        H  0.49292119  0.22864648  0.02454593     0.11600
H641        H  0.49275346  0.29252629  0.02450664     0.11600
H642        H  0.01907753  0.29238703  0.11094531     0.11600
C643        C  0.65182761  0.09664523  0.10588984    -0.14500
C644        C  0.65529105  0.10143039  0.13446882     0.07600
C645        C  0.62647093  0.10392238  0.15075083    -0.14500
C646        C  0.59474989  0.10292543  0.13851335    -0.14500
C647        C  0.59138702  0.09995847  0.10976832     0.07600
C648        C  0.62014503  0.09615445  0.09361932    -0.14500
H649        H  0.67364196  0.09455544  0.09289089     0.11600
H650        H  0.62846710  0.10744373  0.17285870     0.11600
H651        H  0.57294474  0.10595927  0.15140177     0.11600
H652        H  0.61817868  0.09370035  0.07141616     0.11600
C653        C  0.90261427  0.10348533  0.13710321    -0.14500
C654        C  0.90580818  0.10617022  0.10835876     0.07600
C655        C  0.87683137  0.10758254  0.09191331    -0.14500
C656        C  0.84521016  0.10714006  0.10405290    -0.14500
C657        C  0.84206459  0.10577138  0.13285699     0.07600
C658        C  0.87101453  0.10358091  0.14926121    -0.14500
H659        H  0.92455345  0.10231417  0.15023743     0.11600
H660        H  0.87862002  0.10953536  0.06968734     0.11600
H661        H  0.82326725  0.10891415  0.09096583     0.11600
H662        H  0.86923232  0.10235958  0.17151980     0.11600
C663        C  0.65197432  0.42380137  0.10600395    -0.14500
C664        C  0.65538840  0.41899959  0.13457757     0.07600
C665        C  0.62655629  0.41645473  0.15085774    -0.14500
C666        C  0.59484485  0.41751406  0.13863162    -0.14500
C667        C  0.59150517  0.42059408  0.10989769     0.07600
C668        C  0.62029568  0.42434987  0.09374322    -0.14500
H669        H  0.67380611  0.42590400  0.09300918     0.11600
H670        H  0.62852829  0.41289660  0.17296146     0.11600
H671        H  0.57301456  0.41448827  0.15151681     0.11600
H672        H  0.61834460  0.42686823  0.07154588     0.11600
C673        C  0.84502534  0.41369156  0.10393241    -0.14500
C674        C  0.84188098  0.41490079  0.13274428     0.07600
C675        C  0.87084923  0.41687887  0.14916132    -0.14500
C676        C  0.90245338  0.41698385  0.13702284    -0.14500
C677        C  0.90564959  0.41451884  0.10827181     0.07600
C678        C  0.87666648  0.41322020  0.09180495    -0.14500
H679        H  0.82306850  0.41206768  0.09083682     0.11600
H680        H  0.86907376  0.41794917  0.17142627     0.11600
H681        H  0.92439625  0.41801618  0.15017693     0.11600
H682        H  0.87846655  0.41142073  0.06957284     0.11600
C683        C  0.75153277  0.27855770  0.19880557    -0.14500
C684        C  0.74827863  0.29701988  0.17391536     0.07600
C685        C  0.74498361  0.27840571  0.14915802    -0.14500
C686        C  0.74511391  0.24226294  0.14911570    -0.14500
C687        C  0.74849445  0.22363117  0.17383423     0.07600
C688        C  0.75161618  0.24206425  0.19876707    -0.14500
H689        H  0.75411371  0.29228398  0.21818993     0.11600
H690        H  0.74238653  0.29180765  0.12963855     0.11600
H691        H  0.74258828  0.22887750  0.12957087     0.11600
H692        H  0.75425601  0.22831791  0.21812152     0.11600
C693        C  0.49921777  0.01833265  0.46773940    -0.14500
C694        C  0.99895189  0.98354366  0.47649848     0.07600
C695        C  0.99828092  0.97633161  0.50485451    -0.14500
C696        C  0.99804687  0.00337513  0.02408186    -0.14500
C697        C  0.99848711  0.03815493  0.01533970     0.07600
C698        C  0.49900401  0.04539510  0.48698024    -0.14500
H699        H  0.49961737  0.02465131  0.44598100     0.11600
H700        H  0.99806937  0.94979590  0.51217965     0.11600
H701        H  0.99768997  0.99703256  0.04583717     0.11600
H702        H  0.49926508  0.07193794  0.97967842     0.11600
C703        C  0.49957568  0.50255552  0.46768880    -0.14500
C704        C  0.49880938  0.53734716  0.47641120     0.07600
C705        C  0.99789955  0.54462986  0.00474699    -0.14500
C706        C  0.99786586  0.51765097  0.02400268    -0.14500
C707        C  0.49876309  0.48287526  0.01530416     0.07600
C708        C  0.49958043  0.47555071  0.48696345    -0.14500
H709        H  0.50023205  0.49619473  0.44594225     0.11600
H710        H  0.99730186  0.57117602  0.01203639     0.11600
H711        H  0.99724613  0.52404394  0.04574344     0.11600
H712        H  0.50022396  0.44899774  0.47970610     0.11600
C713        C  0.00062630  0.74218987  0.44874806    -0.14500
C714        C  0.99308829  0.72368434  0.42449926     0.07600
C715        C  0.48412530  0.74220611  0.40065278    -0.14500
C716        C  0.48394061  0.77840932  0.40068170    -0.14500
C717        C  0.99274724  0.79705566  0.42455089     0.07600
C718        C  0.00046919  0.77864072  0.44877092    -0.14500
H719        H  0.00743197  0.72853225  0.46745058     0.11600
H720        H  0.47782474  0.72870847  0.38173037     0.11600
H721        H  0.47753255  0.79181969  0.38177230     0.11600
H722        H  0.00717517  0.79238477  0.46748726     0.11600
C723        C  0.74465708  0.50355140  0.27391427    -0.14500
C724        C  0.74876802  0.53818729  0.26544642     0.07600
C725        C  0.75307585  0.54532737  0.23729847    -0.14500
C726        C  0.75332800  0.51831480  0.21800553    -0.14500
C727        C  0.74931599  0.48366558  0.22650516     0.07600
C728        C  0.74494449  0.47655747  0.25463980    -0.14500
H729        H  0.74125953  0.49728073  0.29549173     0.11600
H730        H  0.75634942  0.57175336  0.23020830     0.11600
H731        H  0.75673859  0.52455182  0.19642638     0.11600
H732        H  0.74169698  0.45013549  0.26175191     0.11600
C733        C  0.62786288  0.60587314  0.34283770    -0.14500
C734        C  0.65690627  0.60635695  0.35921442     0.07600
C735        C  0.65389494  0.60626997  0.38805543    -0.14500
C736        C  0.62233051  0.60677669  0.40030377    -0.14500
C737        C  0.59328483  0.60682854  0.38389929     0.07600
C738        C  0.59632673  0.60581118  0.35507623    -0.14500
H739        H  0.62953323  0.60588231  0.32055166     0.11600
H740        H  0.67593151  0.60679226  0.40112193     0.11600
H741        H  0.62064569  0.60749504  0.42257991     0.11600
H742        H  0.57432814  0.60587517  0.34196966     0.11600
C743        C  0.84701885  0.59993993  0.38659373    -0.14500
C744        C  0.84359287  0.60259538  0.35785991     0.07600
C745        C  0.87240340  0.60342706  0.34143478    -0.14500
C746        C  0.90414513  0.60254662  0.35365141    -0.14500
C747        C  0.90749169  0.60135966  0.38247790     0.07600
C748        C  0.87868964  0.59956473  0.39880336    -0.14500
H749        H  0.82520544  0.59930489  0.39970766     0.11600
H750        H  0.87039581  0.60540518  0.31921147     0.11600
H751        H  0.92599985  0.60410522  0.34064007     0.11600
H752        H  0.88063880  0.59860192  0.42108109     0.11600
C753        C  0.74658434  0.01773442  0.27396667    -0.14500
C754        C  0.74886270  0.98295273  0.26547128     0.07600
C755        C  0.75108180  0.97552628  0.23719521    -0.14500
C756        C  0.75118139  0.00240980  0.21780140    -0.14500
C757        C  0.74910321  0.03720522  0.22633415     0.07600
C758        C  0.74670814  0.04459576  0.25459106    -0.14500
H759        H  0.74478315  0.02422125  0.29564089     0.11600
H760        H  0.75285271  0.94897387  0.23007932     0.11600
H761        H  0.75299664  0.99595909  0.19612560     0.11600
H762        H  0.74496105  0.07114365  0.26172927     0.11600
C763        C  0.90422219  0.91922766  0.35388820    -0.14500
C764        C  0.90761462  0.92016209  0.38271274     0.07600
C765        C  0.87884978  0.92188385  0.39908011    -0.14500
C766        C  0.84715582  0.92156921  0.38689690    -0.14500
C767        C  0.84368989  0.91908098  0.35815360     0.07600
C768        C  0.87247061  0.91844223  0.34170169    -0.14500
H769        H  0.92603996  0.91776429  0.34084111     0.11600
H770        H  0.88083599  0.92266716  0.42135927     0.11600
H771        H  0.82535802  0.92207387  0.40002688     0.11600
H772        H  0.87042994  0.91662397  0.31947138     0.11600
C773        C  0.62789301  0.91540808  0.34258973    -0.14500
C774        C  0.65691450  0.91446808  0.35898348     0.07600
C775        C  0.65386205  0.91400936  0.38781372    -0.14500
C776        C  0.62229292  0.91349292  0.40003551    -0.14500
C777        C  0.59325326  0.91394288  0.38363653     0.07600
C778        C  0.59632948  0.91544582  0.35482022    -0.14500
H779        H  0.62960126  0.91581546  0.32030988     0.11600
H780        H  0.67586760  0.91310859  0.40089146     0.11600
H781        H  0.62060076  0.91237723  0.42230242     0.11600
H782        H  0.57433441  0.91577858  0.34171254     0.11600
C783        C  0.75028919  0.77885839  0.29473156    -0.14500
C784        C  0.75086586  0.79730496  0.31973595     0.07600
C785        C  0.75141207  0.77875829  0.34465410    -0.14500
C786        C  0.75132404  0.74258915  0.34466200    -0.14500
C787        C  0.75066132  0.72401535  0.31975089     0.07600
C788        C  0.75016381  0.74243710  0.29474053    -0.14500
H789        H  0.74986455  0.79255529  0.27524113     0.11600
H790        H  0.75185544  0.79221559  0.36425801     0.11600
H791        H  0.75170166  0.72915286  0.36426940     0.11600
H792        H  0.74967251  0.72871577  0.27525161     0.11600
In793      In  0.75009499  0.90466269  0.82376551     1.36900
C794        C  0.75071961  0.83565936  0.82041345     0.76400
O795        O  0.80595973  0.90614490  0.82083932    -0.62000
O796        O  0.78363922  0.91948674  0.85901013    -0.52900
C797        C  0.74915830  0.95472699  0.78611507     0.69100
O798        O  0.75054550  0.92294424  0.77973408    -0.47800
C799        C  0.69016595  0.91225950  0.84613019     0.73800
O800        O  0.75009364  0.85461513  0.79914936    -0.59700
O801        O  0.71694872  0.91778708  0.85933229    -0.49800
O802        O  0.75111797  0.85215995  0.84280528    -0.56100
C803        C  0.81025067  0.91512854  0.84561590     0.84000
O804        O  0.74814043  0.96059092  0.81169349    -0.58000
O805        O  0.69413034  0.90379270  0.82122774    -0.61300
In806      In  0.74991619  0.61663573  0.82368614     1.36900
C807        C  0.75046312  0.68565645  0.82042205     0.76400
O808        O  0.69399670  0.61760624  0.82145620    -0.62000
O809        O  0.71693348  0.60301683  0.85933327    -0.52900
C810        C  0.74890145  0.56651795  0.78602194     0.69100
O811        O  0.75150107  0.59823777  0.77965855    -0.47800
C812        C  0.81014458  0.60642209  0.84535288     0.73800
O813        O  0.74883843  0.66671317  0.79916855    -0.59700
O814        O  0.78355058  0.60177290  0.85875491    -0.49800
O815        O  0.75186700  0.66913873  0.84277959    -0.56100
C816        C  0.69011820  0.60875428  0.84629164     0.84000
O817        O  0.74659185  0.56078497  0.81154948    -0.58000
O818        O  0.80581267  0.61556847  0.82063022    -0.61300
In819      In  0.49968861  0.61638219  0.91875589     1.36900
C820        C  0.99555404  0.68538511  0.92324603     0.76400
O821        O  0.55580712  0.61690334  0.92166519    -0.62000
O822        O  0.53326184  0.60493720  0.88312215    -0.52900
C823        C  0.49910924  0.56581314  0.95600016     0.69100
O824        O  0.99808796  0.59753492  0.96262671    -0.47800
C825        C  0.94061456  0.60485694  0.89561583     0.73800
O826        O  0.50091866  0.66620883  0.94392546    -0.59700
O827        O  0.96762592  0.60153533  0.88254624    -0.49800
O828        O  0.99270863  0.66916399  0.90084385    -0.56100
C829        C  0.55996618  0.60937621  0.89661511     0.84000
O830        O  0.50046470  0.56026133  0.93040078    -0.58000
O831        O  0.94408815  0.61281294  0.92071649    -0.61300
In832      In  0.99968028  0.90445345  0.91877515     1.36900
C833        C  0.99507856  0.83539486  0.92331264     0.76400
O834        O  0.94417619  0.90881328  0.92092814    -0.62000
O835        O  0.96771795  0.91910774  0.88255576    -0.52900
C836        C  0.99939701  0.95503530  0.95608798     0.69100
O837        O  0.49774523  0.92331736  0.96267364    -0.47800
C838        C  0.55992471  0.91141508  0.89639957     0.73800
O839        O  0.00105216  0.85458910  0.94390233    -0.59700
O840        O  0.53320295  0.91580592  0.88296879    -0.49800
O841        O  0.49166474  0.85163368  0.90099094    -0.56100
C842        C  0.94072275  0.91641589  0.89576791     0.84000
O843        O  0.00141346  0.96055867  0.93051446    -0.58000
O844        O  0.55578614  0.90397962  0.92147494    -0.61300
In845      In  0.74903261  0.40452228  0.66878561     1.36900
C846        C  0.74848260  0.33543605  0.67298712     0.78000
O847        O  0.69311297  0.40446018  0.67149892    -0.62000
O848        O  0.71546366  0.42034551  0.63391242    -0.52900
C849        C  0.74946761  0.45517996  0.70606610     0.69100
O850        O  0.74771859  0.42347881  0.71265226    -0.47800
C851        C  0.80868225  0.41230207  0.64569945     0.73800
O852        O  0.75123008  0.35474381  0.69396326    -0.59700
O853        O  0.78173923  0.41685958  0.63255170    -0.49800
O854        O  0.74596706  0.35163890  0.65054132    -0.56100
C855        C  0.68883163  0.41478101  0.64705168     0.84000
O856        O  0.75123411  0.46068223  0.68048451    -0.58000
O857        O  0.80497749  0.40450390  0.67076093    -0.61300
In858      In  0.74913363  0.11617189  0.66860602     1.36900
C859        C  0.74881197  0.18522846  0.67284178     0.76400
O860        O  0.80512153  0.11587858  0.67087381    -0.62000
O861        O  0.78193495  0.10410542  0.63248488    -0.52900
C862        C  0.74934968  0.06559382  0.70584216     0.69100
O863        O  0.74867637  0.09733014  0.71244020    -0.47800
C864        C  0.68878824  0.10574756  0.64692455     0.73800
O865        O  0.75056093  0.16591083  0.69385936    -0.59700
O866        O  0.71537915  0.10036068  0.63373793    -0.49800
O867        O  0.74728338  0.16905022  0.65031521    -0.56100
C868        C  0.80886254  0.10836803  0.64576428     0.84000
O869        O  0.75017261  0.05998957  0.68023160    -0.58000
O870        O  0.69317255  0.11600320  0.67139079    -0.61300
In871      In  0.99942184  0.11662637  0.57347973     1.36900
C872        C  0.00373093  0.18570364  0.56903271     0.76400
O873        O  0.94337642  0.11764134  0.57090383    -0.62000
O874        O  0.96587821  0.10407919  0.60907188    -0.52900
C875        C  0.99864084  0.06653645  0.53584764     0.69100
O876        O  0.50104742  0.09826015  0.52943059    -0.47800
C877        C  0.55836544  0.10396937  0.59654598     0.73800
O878        O  0.99807628  0.16650773  0.54839950    -0.59700
O879        O  0.53135816  0.10250952  0.60983278    -0.49800
O880        O  0.50712572  0.16945163  0.59135246    -0.56100
C881        C  0.93918376  0.10912138  0.59574594     0.84000
O882        O  0.99654538  0.06082031  0.56138818    -0.58000
O883        O  0.55498741  0.11072667  0.57122131    -0.61300
In884      In  0.49933817  0.40463435  0.57350821     1.36900
C885        C  0.00337542  0.33568997  0.56898349     0.76400
O886        O  0.55498561  0.41005212  0.57135428    -0.62000
O887        O  0.53142462  0.41859237  0.60992086    -0.52900
C888        C  0.49891524  0.45458995  0.53584812     0.69100
O889        O  0.00106120  0.42286267  0.52946321    -0.47800
C890        C  0.93904032  0.41179307  0.59567991     0.73800
O891        O  0.49809972  0.35485795  0.54829579    -0.59700
O892        O  0.96570855  0.41764264  0.60889930    -0.49800
O893        O  0.00636494  0.35191577  0.59137230    -0.56100
C894        C  0.55843217  0.41683288  0.59667102     0.84000
O895        O  0.49697337  0.46039194  0.56138288    -0.58000
O896        O  0.94328046  0.40270405  0.57097551    -0.61300
C897        C  0.01358504  0.24271470  0.59189916    -0.14500
C898        C  0.00576412  0.22404548  0.56783042     0.07600
C899        C  0.49889007  0.24242111  0.54341207    -0.14500
C900        C  0.49879092  0.27887739  0.54338770    -0.14500
C901        C  0.00554609  0.29739114  0.56778907     0.07600
C902        C  0.01347644  0.27889013  0.59187755    -0.14500
H903        H  0.01924927  0.22933967  0.61098734     0.11600
H904        H  0.49292122  0.22864627  0.52454559     0.11600
H905        H  0.49275328  0.29252719  0.52450550     0.11600
H906        H  0.01907743  0.29238788  0.61094638     0.11600
C907        C  0.65182754  0.09664521  0.60589008    -0.14500
C908        C  0.65529096  0.10143043  0.63446896     0.07600
C909        C  0.62647080  0.10392248  0.65075095    -0.14500
C910        C  0.59474960  0.10292548  0.63851341    -0.14500
C911        C  0.59138689  0.09995844  0.60976844     0.07600
C912        C  0.62014484  0.09615431  0.59361914    -0.14500
H913        H  0.67364158  0.09455583  0.59289104     0.11600
H914        H  0.62846677  0.10744392  0.67285851     0.11600
H915        H  0.57294522  0.10595938  0.65140140     0.11600
H916        H  0.61817879  0.09370018  0.57141849     0.11600
C917        C  0.90261425  0.10348536  0.63710320    -0.14500
C918        C  0.90580836  0.10617015  0.60835909     0.07600
C919        C  0.87683138  0.10758248  0.59191302    -0.14500
C920        C  0.84521032  0.10713997  0.60405311    -0.14500
C921        C  0.84206454  0.10577121  0.63285692     0.07600
C922        C  0.87101474  0.10358092  0.64926135    -0.14500
H923        H  0.92455556  0.10231424  0.65023860     0.11600
H924        H  0.87861993  0.10953481  0.56969028     0.11600
H925        H  0.82326606  0.10891371  0.59096476     0.11600
H926        H  0.86923224  0.10235915  0.67151981     0.11600
C927        C  0.65197411  0.42380147  0.60600399    -0.14500
C928        C  0.65538831  0.41899958  0.63457734     0.07600
C929        C  0.62655611  0.41645461  0.65085801    -0.14500
C930        C  0.59484480  0.41751403  0.63863135    -0.14500
C931        C  0.59150497  0.42059405  0.60989775     0.07600
C932        C  0.62029555  0.42434999  0.59374328    -0.14500
H933        H  0.67380658  0.42590423  0.59300883     0.11600
H934        H  0.62852793  0.41289670  0.67295818     0.11600
H935        H  0.57301341  0.41448776  0.65151760     0.11600
H936        H  0.61834434  0.42686852  0.57154561     0.11600
C937        C  0.84502523  0.41369164  0.60393233    -0.14500
C938        C  0.84188089  0.41490082  0.63274422     0.07600
C939        C  0.87084901  0.41687891  0.64916132    -0.14500
C940        C  0.90245335  0.41698386  0.63702292    -0.14500
C941        C  0.90564955  0.41451894  0.60827183     0.07600
C942        C  0.87666651  0.41322023  0.59180494    -0.14500
H943        H  0.82306896  0.41206789  0.59083695     0.11600
H944        H  0.86907355  0.41794956  0.67142588     0.11600
H945        H  0.92439534  0.41801618  0.65017668     0.11600
H946        H  0.87846653  0.41142086  0.56957305     0.11600
C947        C  0.75153279  0.27855755  0.69880555    -0.14500
C948        C  0.74827857  0.29701987  0.67391529     0.07600
C949        C  0.74498361  0.27840554  0.64915803    -0.14500
C950        C  0.74511394  0.24226313  0.64911579    -0.14500
C951        C  0.74849448  0.22363117  0.67383417     0.07600
C952        C  0.75161621  0.24206434  0.69876694    -0.14500
H953        H  0.75411375  0.29228421  0.71819028     0.11600
H954        H  0.74238634  0.29180857  0.62963744     0.11600
H955        H  0.74258837  0.22887622  0.62956934     0.11600
H956        H  0.75425619  0.22831710  0.71812237     0.11600
C957        C  0.49921772  0.01833254  0.96773924    -0.14500
C958        C  0.99895180  0.98354356  0.97649849     0.07600
C959        C  0.99828088  0.97633156  0.00485446    -0.14500
C960        C  0.99804689  0.00337525  0.52408181    -0.14500
C961        C  0.99848721  0.03815506  0.51533965     0.07600
C962        C  0.49900393  0.04539527  0.98698006    -0.14500
H963        H  0.49961681  0.02465130  0.94598138     0.11600
H964        H  0.99806929  0.94979542  0.01217970     0.11600
H965        H  0.99768996  0.99703260  0.54583744     0.11600
H966        H  0.49926483  0.07193952  0.47967841     0.11600
C967        C  0.49957565  0.50255570  0.96768875    -0.14500
C968        C  0.49880941  0.53734757  0.97641138     0.07600
C969        C  0.99789956  0.54462981  0.50474696    -0.14500
C970        C  0.99786590  0.51765095  0.52400263    -0.14500
C971        C  0.49876308  0.48287521  0.51530426     0.07600
C972        C  0.49958035  0.47555082  0.98696341    -0.14500
H973        H  0.50023205  0.49619541  0.94594308     0.11600
H974        H  0.99730193  0.57117539  0.51203613     0.11600
H975        H  0.99724623  0.52404413  0.54574370     0.11600
H976        H  0.50022333  0.44899769  0.97970589     0.11600
C977        C  0.00062636  0.74219011  0.94874822    -0.14500
C978        C  0.99308833  0.72368454  0.92449920     0.07600
C979        C  0.48412522  0.74220638  0.90065279    -0.14500
C980        C  0.48394059  0.77840940  0.90068182    -0.14500
C981        C  0.99274731  0.79705584  0.92455094     0.07600
C982        C  0.00046917  0.77864082  0.94877078    -0.14500
H983        H  0.00743180  0.72853268  0.96745011     0.11600
H984        H  0.47782440  0.72870835  0.88173017     0.11600
H985        H  0.47753220  0.79182077  0.88177128     0.11600
H986        H  0.00717600  0.79238615  0.96748865     0.11600
C987        C  0.74465709  0.50355138  0.77391420    -0.14500
C988        C  0.74876803  0.53818703  0.76544658     0.07600
C989        C  0.75307592  0.54532777  0.73729840    -0.14500
C990        C  0.75332796  0.51831460  0.71800560    -0.14500
C991        C  0.74931595  0.48366563  0.72650502     0.07600
C992        C  0.74494445  0.47655727  0.75463977    -0.14500
H993        H  0.74125971  0.49728026  0.79549227     0.11600
H994        H  0.75634902  0.57174974  0.73020936     0.11600
H995        H  0.75673889  0.52455212  0.69642610     0.11600
H996        H  0.74169730  0.45013637  0.76175150     0.11600
C997        C  0.62786287  0.60587324  0.84283762    -0.14500
C998        C  0.65690614  0.60635706  0.85921428     0.07600
C999        C  0.65389515  0.60627007  0.88805552    -0.14500
C1000       C  0.62233031  0.60677670  0.90030367    -0.14500
C1001       C  0.59328475  0.60682867  0.88389925     0.07600
C1002       C  0.59632664  0.60581120  0.85507616    -0.14500
H1003       H  0.62953318  0.60588252  0.82055163     0.11600
H1004       H  0.67592918  0.60679240  0.90112060     0.11600
H1005       H  0.62064572  0.60749513  0.92257978     0.11600
H1006       H  0.57432822  0.60587527  0.84196966     0.11600
C1007       C  0.84701871  0.59994004  0.88659348    -0.14500
C1008       C  0.84359282  0.60259536  0.85785981     0.07600
C1009       C  0.87240338  0.60342712  0.84143467    -0.14500
C1010       C  0.90414519  0.60254657  0.85365136    -0.14500
C1011       C  0.90749171  0.60135980  0.88247768     0.07600
C1012       C  0.87868965  0.59956473  0.89880344    -0.14500
H1013       H  0.82520590  0.59930545  0.89970737     0.11600
H1014       H  0.87039586  0.60540475  0.81921162     0.11600
H1015       H  0.92599977  0.60410526  0.84064009     0.11600
H1016       H  0.88063842  0.59860213  0.92107849     0.11600
C1017       C  0.74658436  0.01773469  0.77396686    -0.14500
C1018       C  0.74886272  0.98295276  0.76547117     0.07600
C1019       C  0.75108184  0.97552613  0.73719517    -0.14500
C1020       C  0.75118141  0.00240990  0.71780148    -0.14500
C1021       C  0.74910324  0.03720544  0.72633419     0.07600
C1022       C  0.74670822  0.04459559  0.75459083    -0.14500
H1023       H  0.74478335  0.02422055  0.79563879     0.11600
H1024       H  0.75285293  0.94897522  0.73007971     0.11600
H1025       H  0.75299665  0.99595896  0.69612541     0.11600
H1026       H  0.74496096  0.07114637  0.76172991     0.11600
C1027       C  0.90422229  0.91922751  0.85388815    -0.14500
C1028       C  0.90761461  0.92016206  0.88271273     0.07600
C1029       C  0.87884975  0.92188379  0.89908012    -0.14500
C1030       C  0.84715579  0.92156923  0.88689691    -0.14500
C1031       C  0.84368988  0.91908090  0.85815360     0.07600
C1032       C  0.87247059  0.91844218  0.84170167    -0.14500
H1033       H  0.92603964  0.91776403  0.84084137     0.11600
H1034       H  0.88083596  0.92266762  0.92135924     0.11600
H1035       H  0.82535796  0.92207355  0.90002696     0.11600
H1036       H  0.87042990  0.91662358  0.81947148     0.11600
C1037       C  0.62789286  0.91540808  0.84258968    -0.14500
C1038       C  0.65691443  0.91446818  0.85898342     0.07600
C1039       C  0.65386196  0.91400939  0.88781361    -0.14500
C1040       C  0.62229291  0.91349300  0.90003549    -0.14500
C1041       C  0.59325324  0.91394287  0.88363658     0.07600
C1042       C  0.59632931  0.91544588  0.85482028    -0.14500
H1043       H  0.62960093  0.91581550  0.82031012     0.11600
H1044       H  0.67586782  0.91310869  0.90089148     0.11600
H1045       H  0.62060076  0.91237740  0.92230247     0.11600
H1046       H  0.57433449  0.91577899  0.84171289     0.11600
C1047       C  0.75028923  0.77885837  0.79473157    -0.14500
C1048       C  0.75086589  0.79730498  0.81973590     0.07600
C1049       C  0.75141210  0.77875824  0.84465423    -0.14500
C1050       C  0.75132407  0.74258910  0.84466180    -0.14500
C1051       C  0.75066136  0.72401525  0.81975091     0.07600
C1052       C  0.75016384  0.74243707  0.79474053    -0.14500
H1053       H  0.74986458  0.79255534  0.77524103     0.11600
H1054       H  0.75185546  0.79221487  0.86425723     0.11600
H1055       H  0.75170171  0.72915202  0.86427025     0.11600
H1056       H  0.74967254  0.72871558  0.77525149     0.11600
loop_ 
_geom_bond_atom_site_label_1 
_geom_bond_atom_site_label_2 
_geom_bond_distance 
_geom_bond_site_symmetry_2 
_ccdc_geom_bond_type 
In1           O3   2.240       .  S
In1           O4   2.239       .  S
In1          O12   2.235       .  S
In1           O6   2.249       .  S
In1           O8   2.268       .  S
In1           O9   2.240       .  S
In1          O10   2.224       .  S
In1          O13   2.241       .  S
C2            O8   1.264       .  A
C2           O10   1.258       .  A
C2          C256   1.478       .  S
O3           C11   1.261       .  A
O4           C11   1.262       .  A
C5           O12   1.262       .  A
C5            O6   1.265       .  A
C5          C226   1.478       .  S
C7            O9   1.262       .  A
C7           O13   1.262       .  A
C7          C246   1.475       .  S
C11         C239   1.473       .  S
In14         O16   2.239       .  S
In14         O17   2.242       .  S
In14         O25   2.234       .  S
In14         O19   2.251       .  S
In14         O21   2.267       .  S
In14         O22   2.238       .  S
In14         O23   2.226       .  S
In14         O26   2.242       .  S
C15          O21   1.264       .  A
C15          O23   1.258       .  A
C15         C259   1.478       .  S
O16          C24   1.262       .  A
O17          C24   1.262       .  A
C18          O25   1.261       .  A
C18          O19   1.265       .  A
C18         C196   1.479       .  S
C20          O22   1.262       .  A
C20          O26   1.261       .  A
C20         C216   1.474       .  S
C24         C206   1.475       .  S
In27         O29   2.248   1_655  S
In27         O30   2.239   1_655  S
In27         O38   2.235   1_655  S
In27         O34   2.275   1_655  S
In27        O560   2.249       .  S
In27        O563   2.241       .  S
In27        O564   2.230       .  S
In27        O567   2.230       .  S
C28          O36   1.258       .  A
C28         O562   1.264       .  A
C28         C186   1.481       .  S
O29          C37   1.261       .  A
O30          C37   1.260       .  A
C31          O38   1.261   1_655  A
C31         O560   1.265       .  A
C31         C176   1.478       .  S
O32        In555   2.249       .  S
O32         C559   1.265       .  A
C33          O35   1.263       .  A
C33          O39   1.262       .  A
C33         C219   1.472       .  S
O34         C556   1.264   1_455  A
O35        In555   2.241       .  S
O36        In555   2.230       .  S
C37         C209   1.475       .  S
O39        In555   2.230       .  S
In40         O42   2.230       .  S
In40         O43   2.240       .  S
In40         O51   2.236       .  S
In40         O47   2.276       .  S
In40        O573   2.251       .  S
In40        O576   2.242       .  S
In40        O577   2.231       .  S
In40        O580   2.247       .  S
C41          O47   1.264       .  A
C41         O577   1.257       .  A
C41         C189   1.481       .  S
O42          C50   1.262       .  A
O43          C50   1.263       .  A
C44          O51   1.261       .  A
C44         O573   1.265       .  A
C44         C166   1.479       .  S
O45        In568   2.251       .  S
O45         C572   1.265       .  A
C46          O48   1.260       .  A
C46          O52   1.261       .  A
C46         C249   1.476       .  S
O48        In568   2.242   1_455  S
O49        In568   2.231       .  S
O49         C569   1.257       .  A
C50         C236   1.472       .  S
O52        In568   2.247   1_455  S
In53         O55   2.241       .  S
In53         O56   2.240       .  S
In53         O64   2.238       .  S
In53         O58   2.250       .  S
In53         O60   2.276       .  S
In53         O61   2.246       .  S
In53         O62   2.224       .  S
In53         O65   2.239       .  S
C54          O60   1.264       .  A
C54          O62   1.259       .  A
C54         C156   1.481       .  S
O55          C63   1.262       .  A
O56          C63   1.262       .  A
C57          O64   1.261       .  A
C57          O58   1.264       .  A
C57         C199   1.479       .  S
C59          O61   1.262       .  A
C59          O65   1.261       .  A
C59         C146   1.475       .  S
C63         C136   1.475       .  S
In66         O68   2.242       .  S
In66         O69   2.244       .  S
In66         O77   2.238       .  S
In66         O71   2.247       .  S
In66         O73   2.275       .  S
In66         O74   2.240       .  S
In66         O75   2.224       .  S
In66         O78   2.243       .  S
C67          O73   1.264       .  A
C67          O75   1.259       .  A
C67         C159   1.481       .  S
O68          C76   1.261       .  A
O69          C76   1.262       .  A
C70          O77   1.261       .  A
C70          O71   1.264       .  A
C70         C229   1.478       .  S
C72          O74   1.262       .  A
C72          O78   1.262       .  A
C72         C116   1.475       .  S
C76         C129   1.475       .  S
In79         O81   2.245       .  S
In79         O82   2.244       .  S
In79         O90   2.231       .  S
In79         O86   2.275       .  S
In79        O612   2.252       .  S
In79        O615   2.240       .  S
In79        O616   2.232       .  S
In79        O619   2.238       .  S
C80          O86   1.263       .  A
C80         O616   1.258       .  A
C80         C106   1.480       .  S
O81          C89   1.261       .  A
O82          C89   1.261       .  A
C83          O90   1.261       .  A
C83         O612   1.265       .  A
C83         C169   1.478       .  S
O84        In607   2.252   1_455  S
O84         C611   1.265   1_455  A
C85          O87   1.262       .  A
C85          O91   1.262       .  A
C85         C119   1.474       .  S
O87        In607   2.240   1_455  S
O88        In607   2.232   1_455  S
O88         C608   1.258       .  A
C89         C126   1.476       .  S
O91        In607   2.238   1_455  S
In92         O94   2.238   1_655  S
In92         O95   2.241   1_655  S
In92        O103   2.230       .  S
In92         O99   2.275       .  S
In92        O625   2.250   1_655  S
In92        O628   2.244       .  S
In92        O629   2.227   1_655  S
In92        O632   2.246       .  S
C93         O101   1.258       .  A
C93         O627   1.263       .  A
C93         C109   1.480       .  S
O94         C102   1.262       .  A
O95         C102   1.262       .  A
C96         O103   1.261       .  A
C96         O625   1.264   1_655  A
C96         C179   1.477       .  S
O97        In620   2.250       .  S
O97         C624   1.264       .  A
C98         O100   1.261       .  A
C98         O104   1.261       .  A
C98         C149   1.476       .  S
O99         C621   1.263   1_655  A
O100       In620   2.244       .  S
O101       In620   2.227       .  S
C102        C139   1.473       .  S
O104       In620   2.246       .  S
C105        C106   1.404       .  A
C105        C110   1.394       .  A
C105        H111   1.083       .  S
C106        C635   1.406       .  A
C107        C108   1.405       .  A
C107        C634   1.406   1_655  A
C107        H112   1.083       .  S
C108        C637   1.406   1_655  A
C108        H113   1.083       .  S
C109        C110   1.404       .  A
C109        C636   1.406       .  A
C110        H114   1.083       .  S
C115        C116   1.404       .  A
C115        C120   1.397       .  A
C115        H121   1.083       .  S
C116        C117   1.405       .  A
C117        C118   1.398       .  A
C117        H122   1.083       .  S
C118        C119   1.404       .  A
C118        H123   1.083       .  S
C119        C120   1.403       .  A
C120        H124   1.083       .  S
C125        C126   1.404       .  A
C125        C130   1.398       .  A
C125        H131   1.083       .  S
C126        C127   1.404       .  A
C127        C128   1.398       .  A
C127        H132   1.083       .  S
C128        C129   1.404       .  A
C128        H133   1.083       .  S
C129        C130   1.404       .  A
C130        H134   1.083       .  S
C135        C136   1.404       .  A
C135        C140   1.397       .  A
C135        H141   1.083       .  S
C136        C137   1.404       .  A
C137        C138   1.398       .  A
C137        H142   1.083       .  S
C138        C139   1.404       .  A
C138        H143   1.083       .  S
C139        C140   1.403       .  A
C140        H144   1.083       .  S
C145        C146   1.404       .  A
C145        C150   1.399       .  A
C145        H151   1.083       .  S
C146        C147   1.404       .  A
C147        C148   1.397       .  A
C147        H152   1.083       .  S
C148        C149   1.404       .  A
C148        H153   1.083       .  S
C149        C150   1.405       .  A
C150        H154   1.083       .  S
C155        C156   1.407       .  A
C155        C160   1.406       .  A
C155        H161   1.083       .  S
C156        C157   1.404       .  A
C157        C158   1.393       .  A
C157        H162   1.083       .  S
C158        C159   1.404       .  A
C158        H163   1.083       .  S
C159        C160   1.407       .  A
C160        H164   1.083       .  S
C165        C170   1.399       .  A
C165        C694   1.406   1_545  A
C165        H171   1.083       .  S
C166        C167   1.403       .  A
C166        C693   1.406   1_565  A
C167        C432   1.398   1_565  A
C167        H172   1.083       .  S
C168        C169   1.406       .  A
C168        C431   1.398   1_545  A
C168        H173   1.083   1_545  S
C169        C962   1.404   1_554  A
C170        C961   1.404       .  A
C170        H438   1.082       .  S
H174        C434   1.082       .  S
C175        C176   1.406       .  A
C175        C180   1.399       .  A
C175        H181   1.083   1_655  S
C176        C969   1.403       .  A
C177        C178   1.398       .  A
C177        C968   1.403   1_554  A
C177        H182   1.083       .  S
C178        C707   1.405       .  A
C178        H183   1.083       .  S
C179        C706   1.405       .  A
C179        C444   1.404   1_554  A
C180        C443   1.404       .  A
C180        H184   1.082   1_655  S
C185        C186   1.406       .  A
C185        C190   1.405       .  A
C185        H191   1.083       .  S
C186        C715   1.405       .  A
C187        C188   1.395       .  A
C187        C714   1.405       .  A
C187        H192   1.083       .  S
C188        C717   1.405       .  A
C188        H193   1.083       .  S
C189        C190   1.406       .  A
C189        C716   1.405       .  A
C190        H194   1.083       .  S
C195        C196   1.406       .  A
C195        C200   1.398       .  A
C195        H201   1.083       .  S
C196        C197   1.404       .  A
C197        C198   1.399       .  A
C197        H202   1.082       .  S
C198        C199   1.406       .  A
C198        H203   1.083       .  S
C199        C200   1.403       .  A
C200        H204   1.083       .  S
C205        C206   1.403       .  A
C205        C210   1.397       .  A
C205        H211   1.083       .  S
C206        C207   1.405       .  A
C207        C208   1.399       .  A
C207        H212   1.083       .  S
C208        C209   1.404       .  A
C208        H213   1.083       .  S
C209        C210   1.404       .  A
C210        H214   1.082       .  S
C215        C216   1.403       .  A
C215        C220   1.395       .  A
C215        H221   1.083       .  S
C216        C217   1.405       .  A
C217        C218   1.398       .  A
C217        H222   1.083       .  S
C218        C219   1.404       .  A
C218        H223   1.082       .  S
C219        C220   1.403       .  A
C220        H224   1.083       .  S
C225        C226   1.405   1_545  A
C225        C230   1.398       .  A
C225        H231   1.083       .  S
C226        C227   1.404       .  A
C227        C228   1.399   1_565  A
C227        H232   1.082       .  S
C228        C229   1.406       .  A
C228        H233   1.083   1_545  S
C229        C230   1.403       .  A
C230        H234   1.082       .  S
C235        C236   1.404       .  A
C235        C240   1.398       .  A
C235        H241   1.082       .  S
C236        C237   1.403       .  A
C237        C238   1.396       .  A
C237        H242   1.083       .  S
C238        C239   1.403       .  A
C238        H243   1.083       .  S
C239        C240   1.405       .  A
C240        H244   1.083       .  S
C245        C246   1.404       .  A
C245        C250   1.398       .  A
C245        H251   1.083       .  S
C246        C247   1.404       .  A
C247        C248   1.398       .  A
C247        H252   1.083       .  S
C248        C249   1.404       .  A
C248        H253   1.083       .  S
C249        C250   1.405       .  A
C250        H254   1.083       .  S
C255        C256   1.405       .  A
C255        C260   1.403       .  A
C255        H261   1.083       .  S
C256        C257   1.404       .  A
C257        C258   1.394       .  A
C257        H262   1.083       .  S
C258        C259   1.404       .  A
C258        H263   1.083       .  S
C259        C260   1.406       .  A
C260        H264   1.083       .  S
In265       O267   2.240       .  S
In265       O268   2.239       .  S
In265       O276   2.235       .  S
In265       O270   2.249       .  S
In265       O272   2.268       .  S
In265       O273   2.240       .  S
In265       O274   2.224       .  S
In265       O277   2.241       .  S
C266        O272   1.264       .  A
C266        O274   1.258       .  A
C266        C520   1.478       .  S
O267        C275   1.261       .  A
O268        C275   1.262       .  A
C269        O276   1.262       .  A
C269        O270   1.265       .  A
C269        C490   1.478       .  S
C271        O273   1.262       .  A
C271        O277   1.262       .  A
C271        C510   1.475       .  S
C275        C503   1.473       .  S
In278       O280   2.239       .  S
In278       O281   2.242       .  S
In278       O289   2.234       .  S
In278       O283   2.251       .  S
In278       O285   2.267       .  S
In278       O286   2.238       .  S
In278       O287   2.226       .  S
In278       O290   2.242       .  S
C279        O285   1.264       .  A
C279        O287   1.258       .  A
C279        C523   1.478       .  S
O280        C288   1.262       .  A
O281        C288   1.262       .  A
C282        O289   1.261       .  A
C282        O283   1.265       .  A
C282        C460   1.479       .  S
C284        O286   1.262       .  A
C284        O290   1.261       .  A
C284        C480   1.474       .  S
C288        C470   1.475       .  S
In291       O293   2.248   1_655  S
In291       O294   2.239   1_655  S
In291       O302   2.235   1_655  S
In291       O824   2.249       .  S
In291       O298   2.275   1_655  S
In291       O827   2.241       .  S
In291       O828   2.230       .  S
In291       O831   2.230       .  S
C292        O826   1.264       .  A
C292        O300   1.258       .  A
C292        C450   1.481       .  S
O293        C301   1.261       .  A
O294        C301   1.260       .  A
C295        O302   1.261   1_655  A
C295        O824   1.265       .  A
C295        C440   1.478       .  S
O296       In819   2.249       .  S
O296        C823   1.265       .  A
C297        O299   1.263       .  A
C297        O303   1.262       .  A
C297        C483   1.472       .  S
O298        C820   1.264   1_455  A
O299       In819   2.241       .  S
O300       In819   2.230       .  S
C301        C473   1.475       .  S
O303       In819   2.230       .  S
In304       O306   2.230       .  S
In304       O307   2.240       .  S
In304       O315   2.236       .  S
In304       O837   2.251       .  S
In304       O311   2.276       .  S
In304       O840   2.242       .  S
In304       O841   2.231       .  S
In304       O844   2.247       .  S
C305        O311   1.264       .  A
C305        O841   1.257       .  A
C305        C453   1.481       .  S
O306        C314   1.262       .  A
O307        C314   1.263       .  A
C308        O315   1.261       .  A
C308        O837   1.265       .  A
C308        C430   1.479       .  S
O309       In832   2.251       .  S
O309        C836   1.265       .  A
C310        O312   1.260       .  A
C310        O316   1.261       .  A
C310        C513   1.476       .  S
O312       In832   2.242   1_455  S
O313       In832   2.231       .  S
O313        C833   1.257       .  A
C314        C500   1.472       .  S
O316       In832   2.247   1_455  S
In317       O319   2.241       .  S
In317       O320   2.240       .  S
In317       O328   2.238       .  S
In317       O322   2.250       .  S
In317       O324   2.276       .  S
In317       O325   2.246       .  S
In317       O326   2.224       .  S
In317       O329   2.239       .  S
C318        O324   1.264       .  A
C318        O326   1.259       .  A
C318        C420   1.481       .  S
O319        C327   1.262       .  A
O320        C327   1.262       .  A
C321        O328   1.261       .  A
C321        O322   1.264       .  A
C321        C463   1.479       .  S
C323        O325   1.262       .  A
C323        O329   1.261       .  A
C323        C410   1.475       .  S
C327        C400   1.475       .  S
In330       O332   2.242       .  S
In330       O333   2.244       .  S
In330       O341   2.238       .  S
In330       O335   2.247       .  S
In330       O337   2.275       .  S
In330       O338   2.240       .  S
In330       O339   2.224       .  S
In330       O342   2.243       .  S
C331        O337   1.264       .  A
C331        O339   1.259       .  A
C331        C423   1.481       .  S
O332        C340   1.261       .  A
O333        C340   1.262       .  A
C334        O341   1.261       .  A
C334        O335   1.264       .  A
C334        C493   1.478       .  S
C336        O338   1.262       .  A
C336        O342   1.262       .  A
C336        C380   1.475       .  S
C340        C393   1.475       .  S
In343       O345   2.245       .  S
In343       O346   2.244       .  S
In343       O354   2.231       .  S
In343       O876   2.252       .  S
In343       O350   2.275       .  S
In343       O879   2.240       .  S
In343       O880   2.232       .  S
In343       O883   2.238       .  S
C344        O350   1.263       .  A
C344        O880   1.258       .  A
C344        C370   1.480       .  S
O345        C353   1.261       .  A
O346        C353   1.261       .  A
C347        O354   1.261       .  A
C347        O876   1.265       .  A
C347        C433   1.478       .  S
O348       In871   2.252   1_455  S
O348        C875   1.265   1_455  A
C349        O351   1.262       .  A
C349        O355   1.262       .  A
C349        C383   1.474       .  S
O351       In871   2.240   1_455  S
O352       In871   2.232   1_455  S
O352        C872   1.258       .  A
C353        C390   1.476       .  S
O355       In871   2.238   1_455  S
In356       O358   2.238   1_655  S
In356       O359   2.241   1_655  S
In356       O367   2.230       .  S
In356       O889   2.250   1_655  S
In356       O363   2.275       .  S
In356       O892   2.244       .  S
In356       O893   2.227   1_655  S
In356       O896   2.246       .  S
C357        O891   1.263       .  A
C357        O365   1.258       .  A
C357        C373   1.480       .  S
O358        C366   1.262       .  A
O359        C366   1.262       .  A
C360        O367   1.261       .  A
C360        O889   1.264   1_655  A
C360        C443   1.477       .  S
O361       In884   2.250       .  S
O361        C888   1.264       .  A
C362        O364   1.261       .  A
C362        O368   1.261       .  A
C362        C413   1.476       .  S
O363        C885   1.263   1_655  A
O364       In884   2.244       .  S
O365       In884   2.227       .  S
C366        C403   1.473       .  S
O368       In884   2.246       .  S
C369        C370   1.404       .  A
C369        C374   1.394       .  A
C369        H375   1.083       .  S
C370        C899   1.406       .  A
C371        C898   1.406   1_655  A
C371        C372   1.405       .  A
C371        H376   1.083       .  S
C372        C901   1.406   1_655  A
C372        H377   1.083       .  S
C373        C900   1.406       .  A
C373        C374   1.404       .  A
C374        H378   1.083       .  S
C379        C380   1.404       .  A
C379        C384   1.397       .  A
C379        H385   1.083       .  S
C380        C381   1.405       .  A
C381        C382   1.398       .  A
C381        H386   1.083       .  S
C382        C383   1.404       .  A
C382        H387   1.082       .  S
C383        C384   1.403       .  A
C384        H388   1.083       .  S
C389        C390   1.404       .  A
C389        C394   1.398       .  A
C389        H395   1.083       .  S
C390        C391   1.404       .  A
C391        C392   1.398       .  A
C391        H396   1.083       .  S
C392        C393   1.404       .  A
C392        H397   1.083       .  S
C393        C394   1.404       .  A
C394        H398   1.083       .  S
C399        C400   1.404       .  A
C399        C404   1.397       .  A
C399        H405   1.083       .  S
C400        C401   1.404       .  A
C401        C402   1.398       .  A
C401        H406   1.083       .  S
C402        C403   1.404       .  A
C402        H407   1.083       .  S
C403        C404   1.403       .  A
C404        H408   1.083       .  S
C409        C410   1.404       .  A
C409        C414   1.399       .  A
C409        H415   1.083       .  S
C410        C411   1.404       .  A
C411        C412   1.397       .  A
C411        H416   1.083       .  S
C412        C413   1.404       .  A
C412        H417   1.083       .  S
C413        C414   1.405       .  A
C414        H418   1.083       .  S
C419        C420   1.407       .  A
C419        C424   1.406       .  A
C419        H425   1.083       .  S
C420        C421   1.404       .  A
C421        C422   1.393       .  A
C421        H426   1.083       .  S
C422        C423   1.404       .  A
C422        H427   1.083       .  S
C423        C424   1.407       .  A
C424        H428   1.083       .  S
C429        C958   1.406   1_545  A
C429        C434   1.399       .  A
C429        H435   1.083       .  S
C430        C957   1.406   1_565  A
C430        C431   1.403   1_556  A
C431        H436   1.083       .  S
C432        C433   1.406       .  A
C432        H437   1.083   1_545  S
C433        C698   1.404       .  A
C434        C697   1.404   1_556  A
C439        C440   1.406       .  A
C439        C444   1.399       .  A
C439        H445   1.083   1_655  S
C440        C705   1.403   1_556  A
C441        C704   1.403       .  A
C441        C442   1.398       .  A
C441        H446   1.082       .  S
C442        C971   1.405       .  A
C442        H447   1.083       .  S
C443        C970   1.405       .  A
C444        H448   1.082   1_655  S
C449        C450   1.406       .  A
C449        C454   1.405       .  A
C449        H455   1.083       .  S
C450        C979   1.405       .  A
C451        C978   1.405       .  A
C451        C452   1.395       .  A
C451        H456   1.083       .  S
C452        C981   1.405       .  A
C452        H457   1.083       .  S
C453        C980   1.405       .  A
C453        C454   1.406       .  A
C454        H458   1.083       .  S
C459        C460   1.406       .  A
C459        C464   1.398       .  A
C459        H465   1.083       .  S
C460        C461   1.404       .  A
C461        C462   1.400       .  A
C461        H466   1.082       .  S
C462        C463   1.406       .  A
C462        H467   1.083       .  S
C463        C464   1.403       .  A
C464        H468   1.082       .  S
C469        C470   1.404       .  A
C469        C474   1.397       .  A
C469        H475   1.083       .  S
C470        C471   1.405       .  A
C471        C472   1.399       .  A
C471        H476   1.083       .  S
C472        C473   1.404       .  A
C472        H477   1.083       .  S
C473        C474   1.404       .  A
C474        H478   1.083       .  S
C479        C480   1.403       .  A
C479        C484   1.395       .  A
C479        H485   1.083       .  S
C480        C481   1.405       .  A
C481        C482   1.398       .  A
C481        H486   1.083       .  S
C482        C483   1.404       .  A
C482        H487   1.083       .  S
C483        C484   1.403       .  A
C484        H488   1.083       .  S
C489        C490   1.405   1_545  A
C489        C494   1.398       .  A
C489        H495   1.083       .  S
C490        C491   1.404       .  A
C491        C492   1.399   1_565  A
C491        H496   1.082       .  S
C492        C493   1.406       .  A
C492        H497   1.083   1_545  S
C493        C494   1.403       .  A
C494        H498   1.083       .  S
C499        C500   1.404       .  A
C499        C504   1.398       .  A
C499        H505   1.082       .  S
C500        C501   1.403       .  A
C501        C502   1.396       .  A
C501        H506   1.083       .  S
C502        C503   1.403       .  A
C502        H507   1.083       .  S
C503        C504   1.405       .  A
C504        H508   1.083       .  S
C509        C510   1.404       .  A
C509        C514   1.398       .  A
C509        H515   1.083       .  S
C510        C511   1.404       .  A
C511        C512   1.398       .  A
C511        H516   1.083       .  S
C512        C513   1.404       .  A
C512        H517   1.083       .  S
C513        C514   1.405       .  A
C514        H518   1.083       .  S
C519        C520   1.405       .  A
C519        C524   1.403       .  A
C519        H525   1.083       .  S
C520        C521   1.404       .  A
C521        C522   1.394       .  A
C521        H526   1.083       .  S
C522        C523   1.404       .  A
C522        H527   1.083       .  S
C523        C524   1.406       .  A
C524        H528   1.083       .  S
In529       O531   2.240       .  S
In529       O532   2.239       .  S
In529       O540   2.235       .  S
In529       O534   2.249       .  S
In529       O536   2.268       .  S
In529       O537   2.240       .  S
In529       O538   2.224       .  S
In529       O541   2.241       .  S
C530        O536   1.264       .  A
C530        O538   1.258       .  A
C530        C784   1.478       .  S
O531        C539   1.261       .  A
O532        C539   1.262       .  A
C533        O540   1.262       .  A
C533        O534   1.265       .  A
C533        C754   1.478       .  S
C535        O537   1.262       .  A
C535        O541   1.262       .  A
C535        C774   1.475       .  S
C539        C767   1.473       .  S
In542       O544   2.239       .  S
In542       O545   2.242       .  S
In542       O553   2.234       .  S
In542       O547   2.251       .  S
In542       O549   2.267       .  S
In542       O550   2.238       .  S
In542       O551   2.226       .  S
In542       O554   2.242       .  S
C543        O549   1.264       .  A
C543        O551   1.258       .  A
C543        C787   1.478       .  S
O544        C552   1.262       .  A
O545        C552   1.262       .  A
C546        O553   1.261       .  A
C546        O547   1.265       .  A
C546        C724   1.479       .  S
C548        O550   1.262       .  A
C548        O554   1.261       .  A
C548        C744   1.474       .  S
C552        C734   1.475       .  S
In555       O557   2.248       .  S
In555       O558   2.239       .  S
In555       O566   2.235       .  S
In555       O562   2.275       .  S
C556        O564   1.258       .  A
C556        C714   1.481       .  S
O557        C565   1.261       .  A
O558        C565   1.260       .  A
C559        O566   1.261       .  A
C559        C704   1.478       .  S
C561        O563   1.263       .  A
C561        O567   1.262       .  A
C561        C747   1.472       .  S
C565        C737   1.475       .  S
In568       O570   2.230       .  S
In568       O571   2.240       .  S
In568       O579   2.236   1_655  S
In568       O575   2.276   1_655  S
C569        O575   1.264   1_655  A
C569        C717   1.481       .  S
O570        C578   1.262       .  A
O571        C578   1.263       .  A
C572        O579   1.261   1_655  A
C572        C694   1.479       .  S
C574        O576   1.260       .  A
C574        O580   1.261       .  A
C574        C777   1.476       .  S
C578        C764   1.472       .  S
In581       O583   2.241       .  S
In581       O584   2.240       .  S
In581       O592   2.238       .  S
In581       O586   2.250       .  S
In581       O588   2.276       .  S
In581       O589   2.246       .  S
In581       O590   2.224       .  S
In581       O593   2.239       .  S
C582        O588   1.264       .  A
C582        O590   1.259       .  A
C582        C684   1.481       .  S
O583        C591   1.262       .  A
O584        C591   1.262       .  A
C585        O592   1.261       .  A
C585        O586   1.264       .  A
C585        C727   1.479       .  S
C587        O589   1.262       .  A
C587        O593   1.261       .  A
C587        C674   1.475       .  S
C591        C664   1.475       .  S
In594       O596   2.242       .  S
In594       O597   2.244       .  S
In594       O605   2.238       .  S
In594       O599   2.247       .  S
In594       O601   2.275       .  S
In594       O602   2.240       .  S
In594       O603   2.224       .  S
In594       O606   2.243       .  S
C595        O601   1.264       .  A
C595        O603   1.259       .  A
C595        C687   1.481       .  S
O596        C604   1.261       .  A
O597        C604   1.262       .  A
C598        O605   1.261       .  A
C598        O599   1.264       .  A
C598        C757   1.478       .  S
C600        O602   1.262       .  A
C600        O606   1.262       .  A
C600        C644   1.475       .  S
C604        C657   1.475       .  S
In607       O609   2.245       .  S
In607       O610   2.244       .  S
In607       O618   2.231       .  S
In607       O614   2.275       .  S
C608        O614   1.263   1_455  A
C608        C634   1.480       .  S
O609        C617   1.261       .  A
O610        C617   1.261       .  A
C611        O618   1.261       .  A
C611        C697   1.478       .  S
C613        O615   1.262       .  A
C613        O619   1.262       .  A
C613        C647   1.474       .  S
C617        C654   1.476       .  S
In620       O622   2.238       .  S
In620       O623   2.241       .  S
In620       O631   2.230       .  S
In620       O627   2.275       .  S
C621        O629   1.258       .  A
C621        C637   1.480       .  S
O622        C630   1.262       .  A
O623        C630   1.262       .  A
C624        O631   1.261       .  A
C624        C707   1.477       .  S
C626        O628   1.261       .  A
C626        O632   1.261       .  A
C626        C677   1.476       .  S
C630        C667   1.473       .  S
C633        C634   1.404       .  A
C633        C638   1.394       .  A
C633        H639   1.083       .  S
C635        C636   1.405       .  A
C635        H640   1.083       .  S
C636        H641   1.083       .  S
C637        C638   1.404       .  A
C638        H642   1.083       .  S
C643        C644   1.404       .  A
C643        C648   1.397       .  A
C643        H649   1.083       .  S
C644        C645   1.405       .  A
C645        C646   1.398       .  A
C645        H650   1.083       .  S
C646        C647   1.404       .  A
C646        H651   1.083       .  S
C647        C648   1.403       .  A
C648        H652   1.083       .  S
C653        C654   1.404       .  A
C653        C658   1.398       .  A
C653        H659   1.082       .  S
C654        C655   1.404       .  A
C655        C656   1.398       .  A
C655        H660   1.083       .  S
C656        C657   1.404       .  A
C656        H661   1.083       .  S
C657        C658   1.404       .  A
C658        H662   1.083       .  S
C663        C664   1.404       .  A
C663        C668   1.397       .  A
C663        H669   1.083       .  S
C664        C665   1.404       .  A
C665        C666   1.398       .  A
C665        H670   1.083       .  S
C666        C667   1.404       .  A
C666        H671   1.083       .  S
C667        C668   1.403       .  A
C668        H672   1.083       .  S
C673        C674   1.404       .  A
C673        C678   1.399       .  A
C673        H679   1.082       .  S
C674        C675   1.404       .  A
C675        C676   1.397       .  A
C675        H680   1.083       .  S
C676        C677   1.404       .  A
C676        H681   1.083       .  S
C677        C678   1.405       .  A
C678        H682   1.083       .  S
C683        C684   1.407       .  A
C683        C688   1.406       .  A
C683        H689   1.083       .  S
C684        C685   1.404       .  A
C685        C686   1.393       .  A
C685        H690   1.083       .  S
C686        C687   1.404       .  A
C686        H691   1.083       .  S
C687        C688   1.407       .  A
C688        H692   1.083       .  S
C693        C698   1.399       .  A
C693        H699   1.083       .  S
C694        C695   1.403       .  A
C695        C960   1.398   1_565  A
C695        H700   1.083       .  S
C696        C959   1.398   1_545  A
C696        C697   1.406       .  A
C696        H701   1.083   1_545  S
C698        H966   1.082       .  S
H702        C962   1.082       .  S
C703        C704   1.406       .  A
C703        C708   1.399       .  A
C703        H709   1.083       .  S
C705        C706   1.398       .  A
C705        H710   1.083       .  S
C706        H711   1.083       .  S
C707        C972   1.404   1_554  A
C708        C971   1.404       .  A
C708        H712   1.082       .  S
C713        C714   1.406   1_455  A
C713        C718   1.405       .  A
C713        H719   1.083       .  S
C715        C716   1.395       .  A
C715        H720   1.083       .  S
C716        H721   1.083       .  S
C717        C718   1.406   1_655  A
C718        H722   1.083       .  S
C723        C724   1.406       .  A
C723        C728   1.398       .  A
C723        H729   1.083       .  S
C724        C725   1.404       .  A
C725        C726   1.399       .  A
C725        H730   1.082       .  S
C726        C727   1.406       .  A
C726        H731   1.083       .  S
C727        C728   1.403       .  A
C728        H732   1.083       .  S
C733        C734   1.404       .  A
C733        C738   1.397       .  A
C733        H739   1.083       .  S
C734        C735   1.404       .  A
C735        C736   1.399       .  A
C735        H740   1.083       .  S
C736        C737   1.404       .  A
C736        H741   1.083       .  S
C737        C738   1.404       .  A
C738        H742   1.083       .  S
C743        C744   1.403       .  A
C743        C748   1.395       .  A
C743        H749   1.083       .  S
C744        C745   1.405       .  A
C745        C746   1.398       .  A
C745        H750   1.083       .  S
C746        C747   1.404       .  A
C746        H751   1.082       .  S
C747        C748   1.403       .  A
C748        H752   1.083       .  S
C753        C754   1.405   1_545  A
C753        C758   1.398       .  A
C753        H759   1.083       .  S
C754        C755   1.404       .  A
C755        C756   1.399   1_565  A
C755        H760   1.082       .  S
C756        C757   1.406       .  A
C756        H761   1.083   1_545  S
C757        C758   1.403       .  A
C758        H762   1.083       .  S
C763        C764   1.404       .  A
C763        C768   1.398       .  A
C763        H769   1.082       .  S
C764        C765   1.403       .  A
C765        C766   1.396       .  A
C765        H770   1.083       .  S
C766        C767   1.403       .  A
C766        H771   1.083       .  S
C767        C768   1.405       .  A
C768        H772   1.083       .  S
C773        C774   1.404       .  A
C773        C778   1.398       .  A
C773        H779   1.083       .  S
C774        C775   1.404       .  A
C775        C776   1.398       .  A
C775        H780   1.083       .  S
C776        C777   1.404       .  A
C776        H781   1.083       .  S
C777        C778   1.405       .  A
C778        H782   1.083       .  S
C783        C784   1.405       .  A
C783        C788   1.403       .  A
C783        H789   1.083       .  S
C784        C785   1.404       .  A
C785        C786   1.394       .  A
C785        H790   1.083       .  S
C786        C787   1.404       .  A
C786        H791   1.083       .  S
C787        C788   1.406       .  A
C788        H792   1.083       .  S
In793       O795   2.240       .  S
In793       O796   2.239       .  S
In793       O804   2.235       .  S
In793       O798   2.249       .  S
In793       O800   2.268       .  S
In793       O801   2.240       .  S
In793       O802   2.224       .  S
In793       O805   2.241       .  S
C794        O800   1.264       .  A
C794        O802   1.258       .  A
C794       C1048   1.478       .  S
O795        C803   1.261       .  A
O796        C803   1.262       .  A
C797        O804   1.262       .  A
C797        O798   1.265       .  A
C797       C1018   1.478       .  S
C799        O801   1.262       .  A
C799        O805   1.262       .  A
C799       C1038   1.475       .  S
C803       C1031   1.473       .  S
In806       O808   2.239       .  S
In806       O809   2.242       .  S
In806       O817   2.234       .  S
In806       O811   2.251       .  S
In806       O813   2.267       .  S
In806       O814   2.238       .  S
In806       O815   2.226       .  S
In806       O818   2.242       .  S
C807        O813   1.264       .  A
C807        O815   1.258       .  A
C807       C1051   1.478       .  S
O808        C816   1.262       .  A
O809        C816   1.262       .  A
C810        O817   1.261       .  A
C810        O811   1.265       .  A
C810        C988   1.479       .  S
C812        O814   1.262       .  A
C812        O818   1.261       .  A
C812       C1008   1.474       .  S
C816        C998   1.475       .  S
In819       O821   2.248       .  S
In819       O822   2.239       .  S
In819       O830   2.235       .  S
In819       O826   2.275       .  S
C820        O828   1.258       .  A
C820        C978   1.481       .  S
O821        C829   1.261       .  A
O822        C829   1.260       .  A
C823        O830   1.261       .  A
C823        C968   1.478       .  S
C825        O827   1.263       .  A
C825        O831   1.262       .  A
C825       C1011   1.472       .  S
C829       C1001   1.475       .  S
In832       O834   2.230       .  S
In832       O835   2.240       .  S
In832       O843   2.236   1_655  S
In832       O839   2.276   1_655  S
C833        O839   1.264   1_655  A
C833        C981   1.481       .  S
O834        C842   1.262       .  A
O835        C842   1.263       .  A
C836        O843   1.261   1_655  A
C836        C958   1.479       .  S
C838        O840   1.260       .  A
C838        O844   1.261       .  A
C838       C1041   1.476       .  S
C842       C1028   1.472       .  S
In845       O847   2.241       .  S
In845       O848   2.240       .  S
In845       O856   2.238       .  S
In845       O850   2.250       .  S
In845       O852   2.276       .  S
In845       O853   2.246       .  S
In845       O854   2.224       .  S
In845       O857   2.239       .  S
C846        O852   1.264       .  A
C846        O854   1.259       .  A
C846        C948   1.481       .  S
O847        C855   1.262       .  A
O848        C855   1.262       .  A
C849        O856   1.261       .  A
C849        O850   1.264       .  A
C849        C991   1.479       .  S
C851        O853   1.262       .  A
C851        O857   1.261       .  A
C851        C938   1.475       .  S
C855        C928   1.475       .  S
In858       O860   2.242       .  S
In858       O861   2.244       .  S
In858       O869   2.238       .  S
In858       O863   2.247       .  S
In858       O865   2.275       .  S
In858       O866   2.240       .  S
In858       O867   2.224       .  S
In858       O870   2.243       .  S
C859        O865   1.264       .  A
C859        O867   1.259       .  A
C859        C951   1.481       .  S
O860        C868   1.261       .  A
O861        C868   1.262       .  A
C862        O869   1.261       .  A
C862        O863   1.264       .  A
C862       C1021   1.478       .  S
C864        O866   1.262       .  A
C864        O870   1.262       .  A
C864        C908   1.475       .  S
C868        C921   1.475       .  S
In871       O873   2.245       .  S
In871       O874   2.244       .  S
In871       O882   2.231       .  S
In871       O878   2.275       .  S
C872        O878   1.263   1_455  A
C872        C898   1.480       .  S
O873        C881   1.261       .  A
O874        C881   1.261       .  A
C875        O882   1.261       .  A
C875        C961   1.478       .  S
C877        O879   1.262       .  A
C877        O883   1.262       .  A
C877        C911   1.474       .  S
C881        C918   1.476       .  S
In884       O886   2.238       .  S
In884       O887   2.241       .  S
In884       O895   2.230       .  S
In884       O891   2.275       .  S
C885        O893   1.258       .  A
C885        C901   1.480       .  S
O886        C894   1.262       .  A
O887        C894   1.262       .  A
C888        O895   1.261       .  A
C888        C971   1.477       .  S
C890        O892   1.261       .  A
C890        O896   1.261       .  A
C890        C941   1.476       .  S
C894        C931   1.473       .  S
C897        C898   1.404       .  A
C897        C902   1.394       .  A
C897        H903   1.083       .  S
C899        C900   1.405       .  A
C899        H904   1.083       .  S
C900        H905   1.083       .  S
C901        C902   1.404       .  A
C902        H906   1.083       .  S
C907        C908   1.404       .  A
C907        C912   1.397       .  A
C907        H913   1.083       .  S
C908        C909   1.405       .  A
C909        C910   1.398       .  A
C909        H914   1.083       .  S
C910        C911   1.404       .  A
C910        H915   1.083       .  S
C911        C912   1.403       .  A
C912        H916   1.083       .  S
C917        C918   1.404       .  A
C917        C922   1.398       .  A
C917        H923   1.083       .  S
C918        C919   1.404       .  A
C919        C920   1.398       .  A
C919        H924   1.083       .  S
C920        C921   1.404       .  A
C920        H925   1.083       .  S
C921        C922   1.404       .  A
C922        H926   1.083       .  S
C927        C928   1.404       .  A
C927        C932   1.397       .  A
C927        H933   1.083       .  S
C928        C929   1.404       .  A
C929        C930   1.398       .  A
C929        H934   1.083       .  S
C930        C931   1.404       .  A
C930        H935   1.083       .  S
C931        C932   1.403       .  A
C932        H936   1.083       .  S
C937        C938   1.404       .  A
C937        C942   1.399       .  A
C937        H943   1.082       .  S
C938        C939   1.404       .  A
C939        C940   1.397       .  A
C939        H944   1.083       .  S
C940        C941   1.404       .  A
C940        H945   1.083       .  S
C941        C942   1.405       .  A
C942        H946   1.083       .  S
C947        C948   1.407       .  A
C947        C952   1.406       .  A
C947        H953   1.083       .  S
C948        C949   1.404       .  A
C949        C950   1.393       .  A
C949        H954   1.083       .  S
C950        C951   1.404       .  A
C950        H955   1.083       .  S
C951        C952   1.407       .  A
C952        H956   1.083       .  S
C957        C962   1.399       .  A
C957        H963   1.083       .  S
C958        C959   1.403   1_556  A
C959        H964   1.083       .  S
C960        C961   1.406       .  A
C960        H965   1.083   1_545  S
C967        C968   1.406       .  A
C967        C972   1.399       .  A
C967        H973   1.083       .  S
C969        C970   1.398       .  A
C969        H974   1.083       .  S
C970        H975   1.083       .  S
C972        H976   1.082       .  S
C977        C978   1.406   1_455  A
C977        C982   1.405       .  A
C977        H983   1.083       .  S
C979        C980   1.395       .  A
C979        H984   1.083       .  S
C980        H985   1.083       .  S
C981        C982   1.406   1_655  A
C982        H986   1.083       .  S
C987        C988   1.406       .  A
C987        C992   1.398       .  A
C987        H993   1.083       .  S
C988        C989   1.404       .  A
C989        C990   1.400       .  A
C989        H994   1.082       .  S
C990        C991   1.406       .  A
C990        H995   1.083       .  S
C991        C992   1.403       .  A
C992        H996   1.082       .  S
C997        C998   1.403       .  A
C997       C1002   1.397       .  A
C997       H1003   1.083       .  S
C998        C999   1.405       .  A
C999       C1000   1.399       .  A
C999       H1004   1.083       .  S
C1000      C1001   1.404       .  A
C1000      H1005   1.083       .  S
C1001      C1002   1.404       .  A
C1002      H1006   1.083       .  S
C1007      C1008   1.403       .  A
C1007      C1012   1.395       .  A
C1007      H1013   1.083       .  S
C1008      C1009   1.405       .  A
C1009      C1010   1.398       .  A
C1009      H1014   1.083       .  S
C1010      C1011   1.404       .  A
C1010      H1015   1.082       .  S
C1011      C1012   1.403       .  A
C1012      H1016   1.083       .  S
C1017      C1018   1.405   1_545  A
C1017      C1022   1.398       .  A
C1017      H1023   1.083       .  S
C1018      C1019   1.404       .  A
C1019      C1020   1.399   1_565  A
C1019      H1024   1.082       .  S
C1020      C1021   1.406       .  A
C1020      H1025   1.083   1_545  S
C1021      C1022   1.403       .  A
C1022      H1026   1.083       .  S
C1027      C1028   1.404       .  A
C1027      C1032   1.398       .  A
C1027      H1033   1.082       .  S
C1028      C1029   1.403       .  A
C1029      C1030   1.396       .  A
C1029      H1034   1.083       .  S
C1030      C1031   1.403       .  A
C1030      H1035   1.083       .  S
C1031      C1032   1.405       .  A
C1032      H1036   1.083       .  S
C1037      C1038   1.404       .  A
C1037      C1042   1.398       .  A
C1037      H1043   1.083       .  S
C1038      C1039   1.404       .  A
C1039      C1040   1.398       .  A
C1039      H1044   1.083       .  S
C1040      C1041   1.404       .  A
C1040      H1045   1.083       .  S
C1041      C1042   1.405       .  A
C1042      H1046   1.083       .  S
C1047      C1048   1.405       .  A
C1047      C1052   1.403       .  A
C1047      H1053   1.083       .  S
C1048      C1049   1.404       .  A
C1049      C1050   1.394       .  A
C1049      H1054   1.083       .  S
C1050      C1051   1.404       .  A
C1050      H1055   1.083       .  S
C1051      C1052   1.406       .  A
C1052      H1056   1.083       .  S
