geometry optimzed in LAMMPS
_audit_creation_date              2020-12-01 
_audit_creation_method            'lammps2cif' 
_symmetry_space_group_name_H-M    'P1' 
_symmetry_Int_Tables_number       1 
_symmetry_cell_setting            triclinic 
loop_ 
_symmetry_equiv_pos_as_xyz 
  x,y,z 
_cell_length_a                    38.86015367 
_cell_length_b                    39.044798957721795 
_cell_length_c                    39.59625529255129 
_cell_angle_alpha                 90.11392249853863 
_cell_angle_beta                  89.91349855599086 
_cell_angle_gamma                 119.94800909005403 
loop_ 
_atom_site_label 
_atom_site_type_symbol 
_atom_site_fract_x 
_atom_site_fract_y 
_atom_site_fract_z 
_atom_site_charge 
C1          C  0.47788402  0.97092284  0.01868070     0.02600
C2          C  0.51200157  0.96676217  0.01700873     0.02600
C3          C  0.54186874  0.98894555  0.99361872    -0.18000
C4          C  0.53775933  0.01428040  0.97124828     0.02600
C5          C  0.50279182  0.01692352  0.97153654     0.02600
C6          C  0.47334600  0.99552475  0.99558413    -0.18000
H7          H  0.44685681  0.99813002  0.99640327     0.04600
H8          H  0.56859983  0.98673917  0.99300641     0.04600
O9          O  0.49520907  0.77498893  0.21611412    -0.74100
O10         O  0.49701675  0.71506447  0.29155891    -0.74200
O11         O  0.49455722  0.78236654  0.28415067    -0.74200
O12         O  0.49757509  0.70782113  0.22375452    -0.74300
O13         O  0.56373755  0.74272935  0.22358253    -0.74200
O14         O  0.56068529  0.81702040  0.28455620    -0.74200
O15         O  0.56318548  0.74938560  0.29146386    -0.74100
O16         O  0.56130889  0.80981260  0.21641933    -0.74200
Ni17       Ni  0.49372924  0.74386813  0.25392501     1.25400
Ni18       Ni  0.56459644  0.78102329  0.25408061     1.25400
C19         C  0.52798751  0.80174490  0.20331755     0.88100
C20         C  0.53042594  0.72210329  0.30378276     0.88000
C21         C  0.52707173  0.81179983  0.29463069     0.88000
C22         C  0.53113397  0.71337240  0.21322097     0.88200
O23         O  0.43800707  0.25475171  0.72266934    -0.74100
O24         O  0.44379578  0.18501798  0.78771037    -0.74200
O25         O  0.44399395  0.25426823  0.79100754    -0.74200
O26         O  0.43770400  0.18550942  0.71930832    -0.74300
O27         O  0.50369705  0.21920157  0.71468653    -0.74200
O28         O  0.50998237  0.28644779  0.78720547    -0.74200
O29         O  0.50967661  0.21737949  0.78276877    -0.74100
O30         O  0.50405780  0.28788181  0.71948170    -0.74200
Ni31       Ni  0.43846127  0.21866197  0.75535271     1.25400
Ni32       Ni  0.50914713  0.25382100  0.75092442     1.25400
C33         C  0.47027143  0.28281375  0.71024045     0.88100
C34         C  0.47780775  0.18979918  0.79604590     0.88000
C35         C  0.47810130  0.28164421  0.80104945     0.88000
C36         C  0.46971785  0.19169473  0.70467156     0.88200
O37         O  0.81399727  0.25589973  0.77534398    -0.74100
O38         O  0.74229619  0.18566288  0.70925625    -0.74200
O39         O  0.81008182  0.25615315  0.70721302    -0.74200
O40         O  0.74631911  0.18585844  0.77757910    -0.74300
O41         O  0.71150503  0.21694208  0.78035444    -0.74200
O42         O  0.77512853  0.28707515  0.71040971    -0.74200
O43         O  0.70721088  0.21653678  0.71224068    -0.74100
O44         O  0.77909873  0.28691685  0.77858288    -0.74200
Ni45       Ni  0.77939737  0.21976321  0.74219692     1.25400
Ni46       Ni  0.74197064  0.25295841  0.74544182     1.25400
C47         C  0.80809933  0.28258354  0.78830604     0.88100
C48         C  0.71307599  0.18963293  0.69963284     0.88000
C49         C  0.80322448  0.28337403  0.69723592     0.88000
C50         C  0.71874865  0.19027552  0.79101857     0.88200
O51         O  0.28486538  0.78222344  0.28054837    -0.74100
O52         O  0.22033784  0.70857286  0.21300114    -0.74200
O53         O  0.28916190  0.77820733  0.21274366    -0.74200
O54         O  0.21598842  0.71290644  0.28074289    -0.74300
O55         O  0.18222584  0.74478475  0.27476703    -0.74200
O56         O  0.25566636  0.81042833  0.20730562    -0.74200
O57         O  0.18698034  0.74088613  0.20684938    -0.74100
O58         O  0.25124685  0.81432421  0.27529924    -0.74200
Ni59       Ni  0.25378262  0.74433903  0.24696849     1.25400
Ni60       Ni  0.21782167  0.77875610  0.24085288     1.25400
C61         C  0.27874927  0.81033063  0.28926936     0.88100
C62         C  0.19310948  0.71260514  0.19865105     0.88000
C63         C  0.28445439  0.80513207  0.19873828     0.88000
C64         C  0.18705552  0.71810272  0.28906251     0.88200
C65         C  0.98571396  0.46276196  0.96865589     0.02600
C66         C  0.98816405  0.50008458  0.96761057     0.02600
C67         C  0.01126323  0.52894960  0.99134426    -0.18000
C68         C  0.03088230  0.52065994  0.01682137     0.02600
C69         C  0.02727883  0.48286210  0.01846900     0.02600
C70         C  0.00525184  0.45443210  0.99410735    -0.18000
H71         H  0.00316558  0.42569708  0.99505893     0.04600
H72         H  0.01357808  0.55777408  0.99021799     0.04600
C73         C  0.95702577  0.47421078  0.51090593     0.02600
C74         C  0.95485917  0.50933956  0.50843069     0.02600
C75         C  0.97567371  0.53659124  0.48290145    -0.18000
C76         C  0.99855141  0.52961769  0.45973194     0.02600
C77         C  0.00032780  0.49450530  0.46161946     0.02600
C78         C  0.97945461  0.46702674  0.48704523    -0.18000
H79         H  0.98206083  0.44072599  0.48907785     0.04600
H80         H  0.97468675  0.56383055  0.48143908     0.04600
O81         O  0.28639451  0.50293106  0.22082714    -0.74100
O82         O  0.21400973  0.50470094  0.28530760    -0.74200
O83         O  0.28478687  0.50708686  0.28893903    -0.74200
O84         O  0.21609003  0.50058635  0.21738848    -0.74300
O85         O  0.18467282  0.43485661  0.21991660    -0.74200
O86         O  0.25284214  0.44136787  0.29225860    -0.74200
O87         O  0.18213855  0.43900475  0.28796517    -0.74100
O88         O  0.25533954  0.43722212  0.22407167    -0.74200
Ni89       Ni  0.25144508  0.50614523  0.25306060     1.25400
Ni90       Ni  0.21764267  0.43575048  0.25618214     1.25400
C91         C  0.28273113  0.46979980  0.21164904     0.88100
C92         C  0.18583846  0.47217330  0.29711201     0.88000
C93         C  0.28015763  0.47529444  0.30248619     0.88000
C94         C  0.18912428  0.46673999  0.20671995     0.88200
O95         O  0.81537576  0.56822035  0.71815742    -0.74100
O96         O  0.75149537  0.56200185  0.79405132    -0.74200
O97         O  0.82156096  0.56379462  0.78594062    -0.74200
O98         O  0.74549901  0.56655293  0.72658606    -0.74300
O99         O  0.71430591  0.50080469  0.72263028    -0.74200
O100        O  0.78890300  0.49802298  0.78337627    -0.74200
O101        O  0.71890821  0.49633852  0.79028901    -0.74100
O102        O  0.78403392  0.50234993  0.71598862    -0.74200
Ni103      Ni  0.78468257  0.56752737  0.75634150     1.25400
Ni104      Ni  0.75038509  0.49705364  0.75298568     1.25400
C105        C  0.81026169  0.53613590  0.70473019     0.88100
C106        C  0.72423728  0.52812247  0.80441746     0.88000
C107        C  0.81777131  0.53047235  0.79453456     0.88000
C108        C  0.71756046  0.53405292  0.71460148     0.88200
C109        C  0.47956486  0.48444109  0.03953958     0.02600
C110        C  0.51547976  0.52093245  0.03918576     0.02600
C111        C  0.54428407  0.52825148  0.01483592    -0.18000
C112        C  0.53762875  0.49985011  0.99037599     0.02600
C113        C  0.50204631  0.46297508  0.99091875     0.02600
C114        C  0.47323668  0.45561105  0.01548336    -0.18000
H115        H  0.44585664  0.42740151  0.01590340     0.04600
H116        H  0.57139641  0.55671510  0.01420151     0.04600
C117        C  0.46801029  0.50250679  0.48879975     0.02600
C118        C  0.50410184  0.53884067  0.49060251     0.02600
C119        C  0.53072172  0.54570028  0.51682560    -0.18000
C120        C  0.52290697  0.51633793  0.54063959     0.02600
C121        C  0.48760003  0.47933501  0.53814820     0.02600
C122        C  0.46015466  0.47296095  0.51257803    -0.18000
H123        H  0.43285824  0.44476298  0.51093349     0.04600
H124        H  0.55812285  0.57384427  0.51830218     0.04600
C125        C  0.50081545  0.98468889  0.46819748     0.02600
C126        C  0.46520646  0.98605760  0.46815951     0.02600
C127        C  0.45933347  0.00896601  0.49210628    -0.18000
C128        C  0.48823523  0.03005670  0.51661840     0.02600
C129        C  0.52368212  0.02816242  0.51689559     0.02600
C130        C  0.52959153  0.00547872  0.49273767    -0.18000
H131        H  0.55699279  0.00449007  0.49270930     0.04600
H132        H  0.43160467  0.00930478  0.49233334     0.04600
C133        C  0.63235203  0.52232344  0.94549591    -0.27300
C134        C  0.62119379  0.52145598  0.91177403     0.02300
C135        C  0.58368427  0.51630388  0.90391964     0.30400
C136        C  0.55700333  0.51052727  0.92985639    -0.19100
C137        C  0.56749773  0.50978952  0.96362055    -0.28500
C138        C  0.60567926  0.51655529  0.97147713     0.44400
C139        C  0.64796529  0.52349754  0.88484229     0.05600
O140        O  0.57244816  0.51546957  0.87097209    -0.57000
H141        H  0.52775498  0.50569614  0.92365771     0.18500
O142        O  0.61665396  0.51635628  0.00435070    -0.63700
H143        H  0.66134914  0.52639780  0.95155282     0.17000
C144        C  0.67676955  0.55996490  0.87166096     0.29200
C145        C  0.70164427  0.56105025  0.84570529    -0.24600
C146        C  0.69821438  0.52590188  0.83265702    -0.23900
C147        C  0.66917435  0.48926786  0.84632781     0.40700
C148        C  0.64442764  0.48839770  0.87231205    -0.26400
O149        O  0.68020231  0.59457508  0.88349348    -0.58300
H150        H  0.72341188  0.58952856  0.83561448     0.16300
O151        O  0.66496018  0.45417291  0.83492939    -0.59700
H152        H  0.62223439  0.46020964  0.88264860     0.14800
H153        H  0.60747058  0.48824827  0.00952257     0.46600
H154        H  0.69789067  0.60174991  0.90344527     0.42000
H155        H  0.64242388  0.44368871  0.81882205     0.45500
H156        H  0.58177417  0.54344083  0.86511221     0.36900
C157        C  0.65085617  0.56325268  0.66805357    -0.27300
C158        C  0.63554628  0.53429047  0.64271023     0.02300
C159        C  0.64702054  0.50541758  0.64133241     0.30400
C160        C  0.67331262  0.50549615  0.66525625    -0.19100
C161        C  0.68911408  0.53460918  0.69046072    -0.28500
C162        C  0.67780849  0.56376292  0.69176388     0.44400
C163        C  0.60788987  0.53415254  0.61730500     0.05600
O164        O  0.63308558  0.47735268  0.61629235    -0.57000
H165        H  0.68197853  0.48311696  0.66364838     0.18500
O166        O  0.69272371  0.59267663  0.71607991    -0.63700
H167        H  0.64225164  0.58569838  0.66915847     0.17000
C168        C  0.56957053  0.52606535  0.62644279     0.29200
C169        C  0.54230202  0.52144780  0.60132523    -0.24600
C170        C  0.55283278  0.52444204  0.56708061    -0.23900
C171        C  0.59163397  0.53385210  0.55811545     0.40700
C172        C  0.61889162  0.53878907  0.58318726    -0.26400
O173        O  0.55824663  0.52152193  0.65970820    -0.58300
H174        H  0.51263283  0.51463521  0.60849656     0.16300
O175        O  0.60278462  0.53703012  0.52486761    -0.59700
H176        H  0.64839546  0.54507582  0.57597723     0.14800
H177        H  0.67447148  0.58124009  0.73560224     0.46600
H178        H  0.54499143  0.49268685  0.66396115     0.42000
H179        H  0.59432008  0.50965161  0.51752334     0.45500
H180        H  0.61096377  0.45342555  0.62670845     0.36900
C181        C  0.38437993  0.47109059  0.07745768    -0.27300
C182        C  0.39227997  0.47182630  0.11207327     0.02300
C183        C  0.42798276  0.47437928  0.12277801     0.30400
C184        C  0.45550098  0.47655712  0.09889483    -0.19100
C185        C  0.44804760  0.47679879  0.06427187    -0.28500
C186        C  0.41206399  0.47361354  0.05356347     0.44400
C187        C  0.36357498  0.47088945  0.13693059     0.05600
O188        O  0.43660764  0.47577727  0.15650264    -0.57000
H189        H  0.48321682  0.47920425  0.10736313     0.18500
O190        O  0.40423600  0.47403510  0.01984439    -0.63700
H191        H  0.35691722  0.46907362  0.06901455     0.17000
C192        C  0.35599953  0.50242501  0.13932586     0.29200
C193        C  0.32994240  0.50182070  0.16399604    -0.24600
C194        C  0.31031952  0.46948275  0.18602757    -0.23900
C195        C  0.31749997  0.43754151  0.18309579     0.40700
C196        C  0.34416734  0.43857421  0.15878605    -0.26400
O197        O  0.37491468  0.53449904  0.11834797    -0.58300
H198        H  0.32479869  0.52661132  0.16562479     0.16300
O199        O  0.29902168  0.40537708  0.20401193    -0.59700
H200        H  0.34976100  0.41407920  0.15696072     0.14800
H201        H  0.41647134  0.50238538  0.01382421     0.46600
H202        H  0.35572672  0.52966258  0.09994059     0.42000
H203        H  0.31728426  0.41158817  0.22344361     0.45500
H204        H  0.45061507  0.50425930  0.16246777     0.36900
C205        C  0.32247449  0.45037012  0.37893435    -0.27300
C206        C  0.35936406  0.48492161  0.38233086     0.02300
C207        C  0.37032145  0.51608461  0.35932045     0.30400
C208        C  0.34423756  0.51249865  0.33344853    -0.19100
C209        C  0.30704321  0.47802259  0.33007866    -0.28500
C210        C  0.29633885  0.44671892  0.35309043     0.44400
C211        C  0.38589961  0.48837669  0.41036989     0.05600
O212        O  0.40704941  0.54947420  0.36124483    -0.57000
H213        H  0.35338440  0.53668421  0.31578445     0.18500
O214        O  0.25981973  0.41310130  0.35146188    -0.63700
H215        H  0.31366791  0.42636358  0.39674029     0.17000
C216        C  0.39680182  0.51795678  0.43507172     0.29200
C217        C  0.42256896  0.52138756  0.46102741    -0.24600
C218        C  0.43797561  0.49571524  0.46274199    -0.23900
C219        C  0.42613554  0.46531362  0.43865306     0.40700
C220        C  0.40003083  0.46166481  0.41274333    -0.26400
O221        O  0.38239656  0.54363655  0.43405876    -0.58300
H222        H  0.43090612  0.54444661  0.47975259     0.16300
O223        O  0.44052247  0.43962243  0.43982369    -0.59700
H224        H  0.39146819  0.43852089  0.39403116     0.14800
H225        H  0.26438819  0.39352498  0.33924357     0.46600
H226        H  0.35633043  0.52969493  0.44568500     0.42000
H227        H  0.46637970  0.45329248  0.42784494     0.45500
H228        H  0.40200345  0.57084689  0.36866652     0.36900
C229        C  0.09250295  0.50275765  0.42180583    -0.27300
C230        C  0.07691562  0.47993634  0.39248466     0.02300
C231        C  0.03563643  0.46020565  0.38680480     0.30400
C232        C  0.01061860  0.46417190  0.41001103    -0.19100
C233        C  0.02644145  0.48774041  0.43886457    -0.28500
C234        C  0.06750578  0.50653544  0.44502961     0.44400
C235        C  0.10418139  0.47772676  0.36768379     0.05600
O236        O  0.01965943  0.43779998  0.35829755    -0.57000
H237        H  0.97899701  0.44969639  0.40510908     0.18500
O238        O  0.08351818  0.52940508  0.47329684    -0.63700
H239        H  0.12417173  0.51777500  0.42659340     0.17000
C240        C  0.13343010  0.51205160  0.35159004     0.29200
C241        C  0.15952532  0.50968290  0.32862090    -0.24600
C242        C  0.15728981  0.47330396  0.32145357    -0.23900
C243        C  0.12768127  0.43883668  0.33764643     0.40700
C244        C  0.10134935  0.44127717  0.36039096    -0.26400
O245        O  0.13574603  0.54782688  0.35727002    -0.58300
H246        H  0.18152451  0.53655851  0.31634454     0.16300
O247        O  0.12396419  0.40257065  0.33144666    -0.59700
H248        H  0.07894048  0.41467281  0.37274887     0.14800
H249        H  0.07999288  0.51055004  0.49153652     0.46600
H250        H  0.15825591  0.56206714  0.37313305     0.42000
H251        H  0.14035266  0.39938735  0.34898186     0.45500
H252        H  0.02108425  0.45663550  0.34082826     0.36900
C253        C  0.87227456  0.50313163  0.56331669    -0.27300
C254        C  0.89391264  0.53439635  0.58583193     0.02300
C255        C  0.93480639  0.55958290  0.58089127     0.30400
C256        C  0.95406540  0.55205816  0.55454079    -0.19100
C257        C  0.93284197  0.51940828  0.53315070    -0.28500
C258        C  0.89151028  0.49556982  0.53692817     0.44400
C259        C  0.87449435  0.53702272  0.61676511     0.05600
O260        O  0.95657084  0.58969526  0.60316326    -0.57000
H261        H  0.98594084  0.57053955  0.55177285     0.18500
O262        O  0.86997571  0.46489809  0.51502379    -0.63700
H263        H  0.84066200  0.48374792  0.56697960     0.17000
C264        C  0.86549017  0.56731324  0.62181496     0.29200
C265        C  0.84574337  0.56771592  0.65129568    -0.24600
C266        C  0.83439212  0.53770768  0.67552324    -0.23900
C267        C  0.84467435  0.50816702  0.67072778     0.40700
C268        C  0.86455575  0.50803959  0.64147490    -0.26400
O269        O  0.87524568  0.59609000  0.59790536    -0.58300
H270        H  0.83807494  0.59064794  0.65465892     0.16300
O271        O  0.83540981  0.47926543  0.69444445    -0.59700
H272        H  0.87235422  0.48526473  0.63792102     0.14800
H273        H  0.85994520  0.44047043  0.52867131     0.46600
H274        H  0.85160666  0.58598147  0.58306704     0.42000
H275        H  0.85787101  0.49072562  0.71063676     0.45500
H276        H  0.95785580  0.61347749  0.59295982     0.36900
C277        C  0.10383383  0.42991797  0.14400831    -0.27300
C278        C  0.11503141  0.46438782  0.12548368     0.02300
C279        C  0.15021590  0.49929746  0.13353570     0.30400
C280        C  0.17387788  0.49952092  0.16005972    -0.19100
C281        C  0.16318946  0.46498996  0.17868645    -0.28500
C282        C  0.12784375  0.42984149  0.17027518     0.44400
C283        C  0.09001268  0.46405487  0.09764091     0.05600
O284        O  0.16097955  0.53362940  0.11624667    -0.57000
H285        H  0.20078595  0.52690050  0.16591387     0.18500
O286        O  0.11586294  0.39559647  0.18804339    -0.63700
H287        H  0.07658997  0.40296845  0.13788022     0.17000
C288        C  0.10315773  0.46759403  0.06406287     0.29200
C289        C  0.08125304  0.47166876  0.03811033    -0.24600
C290        C  0.04655397  0.47274023  0.04546267    -0.23900
C291        C  0.03241757  0.46744429  0.07883756     0.40700
C292        C  0.05410340  0.46282157  0.10480016    -0.26400
O293        O  0.13814006  0.46862928  0.05660430    -0.58300
H294        H  0.09222514  0.47578962  0.01240723     0.16300
O295        O  0.99763529  0.46696609  0.08610801    -0.59700
H296        H  0.04373138  0.45979292  0.13063214     0.14800
H297        H  0.12477369  0.38013355  0.17438351     0.46600
H298        H  0.13135193  0.44055823  0.05572308     0.42000
H299        H  0.00557540  0.49190051  0.09852034     0.45500
H300        H  0.18102213  0.53590824  0.09950944     0.36900
C301        C  0.90213160  0.49241258  0.91767639    -0.27300
C302        C  0.92187074  0.51913085  0.89139185     0.02300
C303        C  0.96360001  0.54176759  0.89145351     0.30400
C304        C  0.98514580  0.53640916  0.91713590    -0.19100
C305        C  0.96530005  0.50861866  0.94272760    -0.28500
C306        C  0.92355801  0.48739545  0.94345050     0.44400
C307        C  0.89817174  0.52313317  0.86438595     0.05600
O308        O  0.98346028  0.56850503  0.86622507    -0.57000
H309        H  0.01731013  0.55301261  0.91656663     0.18500
O310        O  0.90352178  0.46121652  0.96898796    -0.63700
H311        H  0.86997125  0.47549601  0.91821882     0.17000
C312        C  0.87274680  0.49040422  0.84439250     0.29200
C313        C  0.84744041  0.49354177  0.82119540    -0.24600
C314        C  0.84678456  0.52905623  0.81777100    -0.23900
C315        C  0.87319706  0.56216089  0.83730758     0.40700
C316        C  0.89876123  0.55901833  0.86026994    -0.26400
O317        O  0.87290507  0.45543987  0.84710696    -0.58300
H318        H  0.82798754  0.46788534  0.80612597     0.16300
O319        O  0.87370477  0.59744204  0.83486410    -0.59700
H320        H  0.91813086  0.58428400  0.87577883     0.14800
H321        H  0.90147476  0.47740207  0.98736230     0.46600
H322        H  0.84883819  0.43774006  0.86038680     0.42000
H323        H  0.85428635  0.59593655  0.85193028     0.45500
H324        H  0.98892215  0.55354042  0.84881422     0.36900
C325        C  0.31997165  0.89102477  0.35643504    -0.27300
C326        C  0.35298795  0.88872839  0.36750945     0.02300
C327        C  0.36197707  0.86162017  0.35226694     0.30400
C328        C  0.33758823  0.83652675  0.32690847    -0.19100
C329        C  0.30410383  0.83819937  0.31584846    -0.28500
C330        C  0.29559439  0.86610293  0.33069166     0.44400
C331        C  0.37816958  0.91439309  0.39505708     0.05600
O332        O  0.39473077  0.85952598  0.36195897    -0.57000
H333        H  0.34518692  0.81578548  0.31579393     0.18500
O334        O  0.26297634  0.86850804  0.32109457    -0.63700
H335        H  0.31281589  0.91183732  0.36808299     0.17000
C336        C  0.39877781  0.95581891  0.39175212     0.29200
C337        C  0.42571566  0.97928260  0.41672664    -0.24600
C338        C  0.43290217  0.96166240  0.44456472    -0.23900
C339        C  0.41109525  0.92043668  0.44860506     0.40700
C340        C  0.38390572  0.89705027  0.42390985    -0.26400
O341        O  0.39416710  0.97344482  0.36353402    -0.58300
H342        H  0.44245040  0.01108178  0.41358491     0.16300
O343        O  0.41730794  0.90272225  0.47597533    -0.59700
H344        H  0.36798760  0.86520032  0.42679194     0.14800
H345        H  0.27303999  0.89019691  0.30428876     0.46600
H346        H  0.41348794  0.97387095  0.34689845     0.42000
H347        H  0.40151480  0.90521923  0.49452014     0.45500
H348        H  0.41714415  0.88050563  0.34892574     0.36900
C349        C  0.14220025  0.62134960  0.14320557    -0.27300
C350        C  0.12409604  0.63343686  0.11913489     0.02300
C351        C  0.12818147  0.67120056  0.12151611     0.30400
C352        C  0.15023578  0.69644379  0.14784768    -0.19100
C353        C  0.16887036  0.68468656  0.17184813    -0.28500
C354        C  0.16465202  0.64669587  0.16937259     0.44400
C355        C  0.10086793  0.60629018  0.09168438     0.05600
O356        O  0.11110999  0.68384232  0.09799624    -0.57000
H357        H  0.15337543  0.72559411  0.14908532     0.18500
O358        O  0.18109176  0.63349154  0.19300980    -0.63700
H359        H  0.13870200  0.59204844  0.14178311     0.17000
C360        C  0.11870777  0.59199214  0.06906047     0.29200
C361        C  0.09586206  0.56506694  0.04401157    -0.24600
C362        C  0.05512140  0.55177078  0.04148936    -0.23900
C363        C  0.03751449  0.56697449  0.06343215     0.40700
C364        C  0.06041216  0.59402593  0.08847044    -0.26400
O365        O  0.15833832  0.60393958  0.07145367    -0.58300
H366        H  0.10982154  0.55409539  0.02677488     0.16300
O367        O  0.99756343  0.55379449  0.06180813    -0.59700
H368        H  0.04641126  0.60474996  0.10592551     0.14800
H369        H  0.20540921  0.63623946  0.18224798     0.46600
H370        H  0.17201587  0.62809944  0.05738528     0.42000
H371        H  0.99528495  0.57434325  0.04895471     0.45500
H372        H  0.13033405  0.69426610  0.07902957     0.36900
C373        C  0.08276079  0.62247349  0.42275968    -0.27300
C374        C  0.07338360  0.61690131  0.38831481     0.02300
C375        C  0.03789448  0.58374973  0.37748002     0.30400
C376        C  0.01299658  0.55563311  0.40106107    -0.19100
C377        C  0.02295520  0.56081527  0.43540292    -0.28500
C378        C  0.05747252  0.59486723  0.44636030     0.44400
C379        C  0.10260101  0.64394242  0.36372523     0.05600
O380        O  0.02868029  0.57746121  0.34378180    -0.57000
H381        H  0.98640993  0.52938032  0.39254424     0.18500
O382        O  0.06779457  0.60015754  0.47986477    -0.63700
H383        H  0.11015641  0.64786879  0.43121456     0.17000
C384        C  0.09482672  0.66882688  0.34356582     0.29200
C385        C  0.12268583  0.69303781  0.31950383    -0.24600
C386        C  0.15862493  0.69293433  0.31535132    -0.23900
C387        C  0.16664819  0.66861964  0.33644889     0.40700
C388        C  0.13864638  0.64435606  0.36031724    -0.26400
O389        O  0.06007500  0.66954282  0.34711254    -0.58300
H390        H  0.11590174  0.71163794  0.30387213     0.16300
O391        O  0.20156601  0.66805627  0.33395278    -0.59700
H392        H  0.14489263  0.62542877  0.37605633     0.14800
H393        H  0.05630140  0.61587687  0.48914288     0.46600
H394        H  0.06509756  0.68854149  0.36569763     0.42000
H395        H  0.22014278  0.68899388  0.34960717     0.45500
H396        H  0.00922711  0.58646666  0.34000265     0.36900
C397        C  0.59184493  0.05270798  0.59203838    -0.27300
C398        C  0.60905347  0.09390544  0.59310569     0.02300
C399        C  0.60068300  0.11362583  0.56758316     0.30400
C400        C  0.57400155  0.09192035  0.54196562    -0.19100
C401        C  0.55531733  0.05058497  0.54171274    -0.28500
C402        C  0.56507719  0.03094123  0.56638155     0.44400
C403        C  0.63462996  0.11620216  0.62157890     0.05600
O404        O  0.61875956  0.15409831  0.56745249    -0.57000
H405        H  0.56701758  0.10723110  0.52274877     0.18500
O406        O  0.54664393  0.99046015  0.56682298    -0.63700
H407        H  0.59826437  0.03741654  0.61167347     0.17000
C408        C  0.62201496  0.13472901  0.64500481     0.29200
C409        C  0.64768541  0.15820424  0.67056608    -0.24600
C410        C  0.68594995  0.16316876  0.67334584    -0.23900
C411        C  0.69807329  0.14362569  0.65023146     0.40700
C412        C  0.67227070  0.12011513  0.62468985    -0.26400
O413        O  0.58484612  0.13048394  0.64276834    -0.58300
H414        H  0.63762750  0.17261517  0.68819848     0.16300
O415        O  0.73539228  0.14815987  0.65168448    -0.59700
H416        H  0.68205867  0.10583516  0.60666000     0.14800
H417        H  0.56528274  0.98391733  0.55524569     0.46600
H418        H  0.56705064  0.10552434  0.65481494     0.42000
H419        H  0.75227778  0.17175443  0.63768164     0.45500
H420        H  0.59843749  0.16022575  0.57600249     0.36900
C421        C  0.87941425  0.33349850  0.62711999    -0.27300
C422        C  0.87378362  0.36532533  0.61932881     0.02300
C423        C  0.84510123  0.37011876  0.63696764     0.30400
C424        C  0.82227510  0.34307438  0.66203693    -0.19100
C425        C  0.82794607  0.31121033  0.67030898    -0.28500
C426        C  0.85708962  0.30673603  0.65260602     0.44400
C427        C  0.89718398  0.39282673  0.59206419     0.05600
O428        O  0.83822039  0.40034410  0.62893694    -0.57000
H429        H  0.80009198  0.34726015  0.67503101     0.18500
O430        O  0.86350457  0.27594153  0.65937047    -0.63700
H431        H  0.90137682  0.32953421  0.61347600     0.17000
C432        C  0.92431268  0.43275516  0.59902436     0.29200
C433        C  0.94473172  0.45868926  0.57256611    -0.24600
C434        C  0.93762789  0.44556335  0.53887245    -0.23900
C435        C  0.91136764  0.40523408  0.53211100     0.40700
C436        C  0.89162020  0.37912892  0.55867849    -0.26400
O437        O  0.93070405  0.44673406  0.63155326    -0.58300
H438        H  0.96580168  0.48927270  0.57835910     0.16300
O439        O  0.90397418  0.39127150  0.49957891    -0.59700
H440        H  0.87093074  0.34833716  0.55314241     0.14800
H441        H  0.88594655  0.28672676  0.67558163     0.46600
H442        H  0.95203737  0.44228467  0.64033165     0.42000
H443        H  0.88122829  0.39413182  0.49199517     0.45500
H444        H  0.84703452  0.41796883  0.64895857     0.36900
C445        C  0.85090843  0.35393309  0.86196339    -0.27300
C446        C  0.88671874  0.35430662  0.86699387     0.02300
C447        C  0.89672163  0.33137763  0.84636267     0.30400
C448        C  0.87084940  0.30827562  0.82078106    -0.19100
C449        C  0.83503511  0.30811565  0.81514740    -0.28500
C450        C  0.82518322  0.33132392  0.83605434     0.44400
C451        C  0.91409444  0.37998916  0.89314730     0.05600
O452        O  0.93118098  0.33056541  0.85171458    -0.57000
H453        H  0.87901453  0.29055237  0.80527298     0.18500
O454        O  0.79007813  0.33125250  0.83215880    -0.63700
H455        H  0.84313075  0.37158704  0.87798289     0.17000
C456        C  0.94943241  0.41429807  0.88407336     0.29200
C457        C  0.97372387  0.44016293  0.90911434    -0.24600
C458        C  0.96280301  0.43231425  0.94318714    -0.23900
C459        C  0.92822458  0.39720360  0.95234305     0.40700
C460        C  0.90378846  0.37139361  0.92723845    -0.26400
O461        O  0.95967018  0.42339555  0.85077858    -0.58300
H462        H  0.00038206  0.46714223  0.90193550     0.16300
O463        O  0.91676105  0.38936367  0.98551613    -0.59700
H464        H  0.87641668  0.34506242  0.93427169     0.14800
H465        H  0.79694854  0.35537799  0.81891939     0.46600
H466        H  0.94643646  0.43829181  0.84357089     0.42000
H467        H  0.92658274  0.37167277  0.99334323     0.45500
H468        H  0.94998013  0.34821935  0.83427471     0.36900
C469        C  0.43766766  0.10572335  0.64413719    -0.27300
C470        C  0.46797455  0.12249404  0.61989175     0.02300
C471        C  0.49763862  0.16236347  0.62281074     0.30400
C472        C  0.49751806  0.18458511  0.65042082    -0.19100
C473        C  0.46783248  0.16762198  0.67527542    -0.28500
C474        C  0.43722466  0.12808482  0.67159648     0.44400
C475        C  0.47044464  0.09735267  0.59332841     0.05600
O476        O  0.52748756  0.17951277  0.59933298    -0.57000
H477        H  0.52092608  0.21514812  0.65251365     0.18500
O478        O  0.40811524  0.11036783  0.69561799    -0.63700
H479        H  0.41473897  0.07496581  0.64207734     0.17000
C480        C  0.47668368  0.06602410  0.60214063     0.29200
C481        C  0.48114036  0.04355183  0.57692062    -0.24600
C482        C  0.48014583  0.05231777  0.54272015    -0.23900
C483        C  0.47300745  0.08313427  0.53385197     0.40700
C484        C  0.46840572  0.10561343  0.55917166    -0.26400
O485        O  0.48070769  0.05865780  0.63533786    -0.58300
H486        H  0.48626888  0.01970733  0.58408322     0.16300
O487        O  0.47253801  0.09271550  0.50060960    -0.59700
H488        H  0.46377324  0.12983268  0.55219299     0.14800
H489        H  0.38513432  0.11197799  0.68668977     0.46600
H490        H  0.45449675  0.03618306  0.64191364     0.42000
H491        H  0.44404135  0.08091175  0.49473389     0.45500
H492        H  0.54856801  0.17431973  0.60749182     0.36900
C493        C  0.51773985  0.36658221  0.86379172    -0.27300
C494        C  0.48474634  0.35472901  0.88491998     0.02300
C495        C  0.44937191  0.31935421  0.87796000     0.30400
C496        C  0.44742733  0.29622760  0.85025795    -0.19100
C497        C  0.48067237  0.30759227  0.82935929    -0.28500
C498        C  0.51608469  0.34325718  0.83636109     0.44400
C499        C  0.48744449  0.37997879  0.91373760     0.05600
O500        O  0.41667565  0.30694303  0.89829923    -0.57000
H501        H  0.41996805  0.26893390  0.84554179     0.18500
O502        O  0.54888625  0.35629842  0.81603627    -0.63700
H503        H  0.54486668  0.39424853  0.86842735     0.17000
C504        C  0.51756634  0.39139906  0.93812922     0.29200
C505        C  0.52082332  0.41699927  0.96419684    -0.24600
C506        C  0.49478504  0.43202857  0.96591158    -0.23900
C507        C  0.46407006  0.41986689  0.94209666     0.40700
C508        C  0.46060476  0.39403826  0.91614252    -0.26400
O509        O  0.54350970  0.37720630  0.93689832    -0.58300
H510        H  0.54438615  0.42601989  0.98262660     0.16300
O511        O  0.43899564  0.43508447  0.94274946    -0.59700
H512        H  0.43766185  0.38590390  0.89724551     0.14800
H513        H  0.56672209  0.34908179  0.82808495     0.46600
H514        H  0.56902710  0.39966439  0.92890905     0.42000
H515        H  0.41501626  0.41518956  0.95496857     0.45500
H516        H  0.41922794  0.29014581  0.91573390     0.36900
C517        C  0.44691228  0.40364933  0.60837250    -0.27300
C518        C  0.47332643  0.38897284  0.60727542     0.02300
C519        C  0.50226040  0.40181314  0.58158874     0.30400
C520        C  0.50560439  0.43031409  0.55846111    -0.19100
C521        C  0.48043915  0.44629796  0.56059993    -0.28500
C522        C  0.45023585  0.43208342  0.58510078     0.44400
C523        C  0.47183903  0.36193283  0.63406550     0.05600
O524        O  0.52676476  0.38602457  0.57861399    -0.57000
H525        H  0.52845094  0.44061467  0.53919482     0.18500
O526        O  0.42545707  0.44752077  0.58770955    -0.63700
H527        H  0.42455200  0.39401303  0.62801099     0.17000
C528        C  0.50557546  0.37190596  0.65384623     0.29200
C529        C  0.50433474  0.34590932  0.67850392    -0.24600
C530        C  0.46933353  0.30999854  0.68473039    -0.23900
C531        C  0.43493503  0.30067129  0.66583565     0.40700
C532        C  0.43647414  0.32652872  0.64057401    -0.26400
O533        O  0.53989031  0.40731235  0.64953421    -0.58300
H534        H  0.53097924  0.35421413  0.69303178     0.16300
O535        O  0.40017670  0.26582725  0.67085749    -0.59700
H536        H  0.41014404  0.31871252  0.62574521     0.14800
H537        H  0.40126488  0.42903414  0.57493106     0.46600
H538        H  0.53773195  0.42581755  0.66540105     0.42000
H539        H  0.38433007  0.27254691  0.68634492     0.45500
H540        H  0.55402037  0.40818538  0.58290061     0.36900
C541        C  0.55585329  0.90160650  0.35019887    -0.27300
C542        C  0.52080945  0.88884327  0.36870603     0.02300
C543        C  0.48786813  0.85141039  0.36238315     0.30400
C544        C  0.49010797  0.82715135  0.33760721    -0.19100
C545        C  0.52538823  0.83931428  0.31936009    -0.28500
C546        C  0.55845861  0.87705482  0.32577358     0.44400
C547        C  0.51854593  0.91475847  0.39451929     0.05600
O548        O  0.45311903  0.83865740  0.37992130    -0.57000
H549        H  0.46429543  0.79836541  0.33321468     0.18500
O550        O  0.59345436  0.89025117  0.30851525    -0.63700
H551        H  0.58134839  0.93050701  0.35498930     0.17000
C552        C  0.51509215  0.90464304  0.42892546     0.29200
C553        C  0.51003288  0.92807599  0.45287079    -0.24600
C554        C  0.50848829  0.96166010  0.44278636    -0.23900
C555        C  0.51364046  0.97268621  0.40853595     0.40700
C556        C  0.51843529  0.94910737  0.38456429    -0.26400
O557        O  0.51600462  0.87159313  0.43923756    -0.58300
H558        H  0.50652500  0.91966744  0.47925833     0.16300
O559        O  0.51353931  0.00615686  0.39827480    -0.59700
H560        H  0.52136802  0.95720145  0.35812000     0.14800
H561        H  0.59062609  0.90296614  0.28786473     0.46600
H562        H  0.54457862  0.88025092  0.44186936     0.42000
H563        H  0.54121484  0.02795393  0.40148170     0.45500
H564        H  0.45286999  0.82023766  0.39725025     0.36900
C565        C  0.56379118  0.67131220  0.14192992    -0.27300
C566        C  0.53021492  0.63386490  0.13842224     0.02300
C567        C  0.49760605  0.62201845  0.16010825     0.30400
C568        C  0.49866754  0.64790787  0.18493115    -0.19100
C569        C  0.53194751  0.68586830  0.18821448    -0.28500
C570        C  0.56472117  0.69752427  0.16640998     0.44400
C571        C  0.52888400  0.60754761  0.11144136     0.05600
O572        O  0.46495552  0.58492887  0.15752573    -0.57000
H573        H  0.47327423  0.63829514  0.20149722     0.18500
O574        O  0.59727753  0.73475142  0.16807556    -0.63700
H575        H  0.58886111  0.68057089  0.12503614     0.17000
C576        C  0.50231717  0.59818673  0.08435282     0.29200
C577        C  0.49910107  0.57073854  0.06024935    -0.24600
C578        C  0.52233617  0.55266541  0.06287245    -0.23900
C579        C  0.55019394  0.56331590  0.08908580     0.40700
C580        C  0.55343419  0.59084792  0.11325946    -0.26400
O581        O  0.47891198  0.61517446  0.08165730    -0.58300
H582        H  0.47792395  0.56290047  0.03983731     0.16300
O583        O  0.57347821  0.54618384  0.09168808    -0.59700
H584        H  0.57418493  0.59829215  0.13396999     0.14800
H585        H  0.59090421  0.75122186  0.15317016     0.46600
H586        H  0.49589538  0.64099452  0.07050222     0.42000
H587        H  0.55858841  0.52305212  0.10670398     0.45500
H588        H  0.44460876  0.58875456  0.14579750     0.36900
C589        C  0.52390343  0.63288852  0.44710929    -0.27300
C590        C  0.52759011  0.62403263  0.41342291     0.02300
C591        C  0.52684940  0.58852190  0.40557243     0.30400
C592        C  0.52053100  0.56146252  0.43117320    -0.19100
C593        C  0.51504366  0.56955768  0.46463627    -0.28500
C594        C  0.51786472  0.60593801  0.47274570     0.44400
C595        C  0.52924489  0.65058042  0.38636294     0.05600
O596        O  0.53095826  0.57950240  0.37285361    -0.57000
H597        H  0.51881121  0.53363432  0.42484208     0.18500
O598        O  0.51361746  0.61483880  0.50546918    -0.63700
H599        H  0.52482111  0.66036098  0.45336581     0.17000
C600        C  0.49661631  0.65598236  0.38050808     0.29200
C601        C  0.49742435  0.67934663  0.35353306    -0.24600
C602        C  0.53091528  0.69826188  0.33247952    -0.23900
C603        C  0.56394192  0.69336230  0.33885660     0.40700
C604        C  0.56273241  0.66930446  0.36548914    -0.26400
O605        O  0.46314534  0.63709317  0.40015689    -0.58300
H606        H  0.47174147  0.68268815  0.34913800     0.16300
O607        O  0.59673753  0.71034865  0.31831020    -0.59700
H608        H  0.58788859  0.66505828  0.36977722     0.14800
H609        H  0.48467094  0.60376157  0.50870563     0.46600
H610        H  0.46555293  0.65709763  0.41689830     0.42000
H611        H  0.61612414  0.73488814  0.33014032     0.45500
H612        H  0.50364678  0.56573223  0.36348885     0.36900
C613        C  0.64318567  0.14395859  0.86170551    -0.27300
C614        C  0.65244467  0.11608378  0.87442681     0.02300
C615        C  0.68355259  0.11262999  0.85977745     0.30400
C616        C  0.70469093  0.13671397  0.83250401    -0.19100
C617        C  0.69545584  0.16473197  0.81959281    -0.28500
C618        C  0.66452864  0.16841602  0.83482414     0.44400
C619        C  0.62788223  0.08971234  0.90190418     0.05600
O620        O  0.69349809  0.08583070  0.87190972    -0.57000
H621        H  0.72848892  0.13348501  0.82157818     0.18500
O622        O  0.65421588  0.19520354  0.82335660    -0.63700
H623        H  0.61882948  0.14644247  0.87241217     0.17000
C624        C  0.62092948  0.10538297  0.93152765     0.29200
C625        C  0.59237163  0.08024241  0.95461517    -0.24600
C626        C  0.57110703  0.03942325  0.94882226    -0.23900
C627        C  0.57991502  0.02340216  0.92054002     0.40700
C628        C  0.60795333  0.04861160  0.89703748    -0.26400
O629        O  0.64088053  0.14533241  0.93748281    -0.58300
H630        H  0.58595170  0.09264356  0.97662782     0.16300
O631        O  0.55905964  0.98351835  0.91438057    -0.59700
H632        H  0.61274047  0.03619527  0.87421908     0.14800
H633        H  0.66867911  0.21868960  0.83814665     0.46600
H634        H  0.66613424  0.15095036  0.94838612     0.42000
H635        H  0.57533457  0.97303963  0.92435553     0.45500
H636        H  0.71236608  0.09964313  0.89063575     0.36900
C637        C  0.51652160  0.13545740  0.84959344    -0.27300
C638        C  0.48430013  0.11363282  0.87122619     0.02300
C639        C  0.44996925  0.11682508  0.86814896     0.30400
C640        C  0.44808601  0.14142768  0.84341966    -0.19100
C641        C  0.48037925  0.16347928  0.82165232    -0.28500
C642        C  0.51497769  0.16048538  0.82517725     0.44400
C643        C  0.48704865  0.08769170  0.89689777     0.05600
O644        O  0.41808921  0.09592365  0.88913042    -0.57000
H645        H  0.42137160  0.14349108  0.84151781     0.18500
O646        O  0.54712661  0.18104241  0.80437780    -0.63700
H647        H  0.54320225  0.13335933  0.85187786     0.17000
C648        C  0.49225879  0.05591199  0.88715151     0.29200
C649        C  0.49622034  0.03247695  0.91173532    -0.24600
C650        C  0.49618703  0.04094169  0.94618759    -0.23900
C651        C  0.49073621  0.07259996  0.95596527     0.40700
C652        C  0.48587671  0.09555274  0.93135080    -0.26400
O653        O  0.49254888  0.04703035  0.85364965    -0.58300
H654        H  0.49968578  0.00777667  0.90388291     0.16300
O655        O  0.49091262  0.08178015  0.98943405    -0.59700
H656        H  0.48219633  0.12016142  0.93911320     0.14800
H657        H  0.56599858  0.20462929  0.81757733     0.46600
H658        H  0.52093529  0.05760872  0.84790203     0.42000
H659        H  0.51913095  0.10059137  0.99483551     0.45500
H660        H  0.40121787  0.07044932  0.87738416     0.36900
C661        C  0.49461627  0.87456321  0.06303059    -0.27300
C662        C  0.52350651  0.89078584  0.08855735     0.02300
C663        C  0.55050454  0.93184737  0.08866533     0.30400
C664        C  0.54753771  0.95602211  0.06424487    -0.19100
C665        C  0.51735641  0.93997899  0.03995531    -0.28500
C666        C  0.49135028  0.89888141  0.03891740     0.44400
C667        C  0.52395054  0.86531391  0.11609869     0.05600
O668        O  0.57890081  0.94890274  0.11332269    -0.57000
H669        H  0.56772279  0.98764848  0.06517844     0.18500
O670        O  0.46207053  0.88237703  0.01494060    -0.63700
H671        H  0.47415572  0.84301506  0.06207551     0.17000
C672        C  0.48927040  0.84081176  0.13463998     0.29200
C673        C  0.49106352  0.82024361  0.16279637    -0.24600
C674        C  0.52710739  0.82324639  0.17286431    -0.23900
C675        C  0.56149965  0.84635506  0.15329796     0.40700
C676        C  0.55969139  0.86713914  0.12526944    -0.26400
O677        O  0.45390422  0.83856709  0.12662314    -0.58300
H678        H  0.46413910  0.80247991  0.17714681     0.16300
O679        O  0.59715830  0.84923306  0.16138470    -0.59700
H680        H  0.58646551  0.88509658  0.11079751     0.14800
H681        H  0.47498011  0.87842199  0.99486587     0.46600
H682        H  0.43738410  0.81201857  0.11644021     0.42000
H683        H  0.59726945  0.82698626  0.14934721     0.45500
H684        H  0.56553664  0.95418339  0.13232628     0.36900
C685        C  0.37513787  0.85789200  0.14225363    -0.27300
C686        C  0.36472986  0.88077833  0.12212347     0.02300
C687        C  0.32774918  0.87833550  0.12691739     0.30400
C688        C  0.30191222  0.85346229  0.15183093    -0.19100
C689        C  0.31231099  0.83053797  0.17221776    -0.28500
C690        C  0.34926198  0.83268077  0.16695937     0.44400
C691        C  0.39267074  0.90665647  0.09597873     0.05600
O692        O  0.31675610  0.90041583  0.10761764    -0.57000
H693        H  0.27360752  0.85216472  0.15513664     0.18500
O694        O  0.36100105  0.81128364  0.18638958    -0.63700
H695        H  0.40344884  0.85947372  0.13865878     0.17000
C696        C  0.43178690  0.93531433  0.10454350     0.29200
C697        C  0.45872207  0.95744146  0.07917761    -0.24600
C698        C  0.44745731  0.95067866  0.04510177    -0.23900
C699        C  0.40793163  0.92317941  0.03659364     0.40700
C700        C  0.38077246  0.90138817  0.06202083    -0.26400
O701        O  0.44368428  0.94218328  0.13767684    -0.58300
H702        H  0.48883585  0.97926720  0.08604824     0.16300
O703        O  0.39593137  0.91661640  0.00349928    -0.59700
H704        H  0.35073706  0.87936483  0.05513729     0.14800
H705        H  0.35546552  0.78792659  0.17247823     0.46600
H706        H  0.46090494  0.93035706  0.14069162     0.42000
H707        H  0.40033550  0.89492625  0.99579896     0.45500
H708        H  0.32760641  0.92610778  0.11954287     0.36900
loop_ 
_geom_bond_atom_site_label_1 
_geom_bond_atom_site_label_2 
_geom_bond_distance 
_geom_bond_site_symmetry_2 
_ccdc_geom_bond_type 
C1            C2   1.415       .  A
C1            C6   1.401   1_554  A
C1          C698   1.478       .  S
C2            C3   1.397   1_554  A
C2          C665   1.478       .  S
C3            C4   1.397   1_565  A
C3            H8   1.085       .  S
C4            C5   1.413       .  A
C4          C626   1.470       .  S
C5            C6   1.400   1_545  A
C5          C650   1.482       .  S
C6            H7   1.084       .  S
O9          Ni17   1.913       .  S
O9           C19   1.281       .  A
O10         Ni17   1.911       .  S
O10          C20   1.281       .  A
O11         Ni17   1.907       .  S
O11          C21   1.280       .  A
O12         Ni17   1.906       .  S
O12          C22   1.280       .  A
O13         Ni18   1.907       .  S
O13          C22   1.280       .  A
O14         Ni18   1.913       .  S
O14          C21   1.281       .  A
O15         Ni18   1.913       .  S
O15          C20   1.280       .  A
O16         Ni18   1.912       .  S
O16          C19   1.280       .  A
Ni17        Ni18   2.387       .  S
C19         C674   1.481       .  S
C20         C602   1.476       .  S
C21         C545   1.477       .  S
C22         C569   1.471       .  S
O23         Ni31   1.922       .  S
O23          C33   1.282       .  A
O24         Ni31   1.921       .  S
O24          C34   1.283       .  A
O25         Ni31   1.915       .  S
O25          C35   1.282       .  A
O26         Ni31   1.915       .  S
O26          C36   1.281       .  A
O27         Ni32   1.907       .  S
O27          C36   1.280       .  A
O28         Ni32   1.908       .  S
O28          C35   1.279       .  A
O29         Ni32   1.911       .  S
O29          C34   1.280       .  A
O30         Ni32   1.905       .  S
O30          C33   1.280       .  A
Ni31        Ni32   2.386       .  S
C33         C530   1.480       .  S
C34         C641   1.484       .  S
C35         C497   1.479       .  S
C36         C473   1.473       .  S
O37         Ni45   1.904       .  S
O37          C47   1.280       .  A
O38         Ni45   1.907       .  S
O38          C48   1.279       .  A
O39         Ni45   1.916       .  S
O39          C49   1.281       .  A
O40         Ni45   1.916       .  S
O40          C50   1.282       .  A
O41         Ni46   1.905       .  S
O41          C50   1.279       .  A
O42         Ni46   1.910       .  S
O42          C49   1.281       .  A
O43         Ni46   1.912       .  S
O43          C48   1.281       .  A
O44         Ni46   1.911       .  S
O44          C47   1.280       .  A
Ni45        Ni46   2.386       .  S
C47         C449   1.475       .  S
C48         C410   1.474       .  S
C49         C425   1.483       .  S
C50         C617   1.481       .  S
O51         Ni59   1.905       .  S
O51          C61   1.280       .  A
O52         Ni59   1.906       .  S
O52          C62   1.279       .  A
O53         Ni59   1.914       .  S
O53          C63   1.281       .  A
O54         Ni59   1.911       .  S
O54          C64   1.281       .  A
O55         Ni60   1.909       .  S
O55          C64   1.280       .  A
O56         Ni60   1.908       .  S
O56          C63   1.280       .  A
O57         Ni60   1.914       .  S
O57          C62   1.282       .  A
O58         Ni60   1.916       .  S
O58          C61   1.281       .  A
Ni59        Ni60   2.386       .  S
C61         C329   1.480       .  S
C62         C353   1.475       .  S
C63         C689   1.479       .  S
C64         C386   1.479       .  S
C65          C66   1.413       .  A
C65          C70   1.396   1_655  A
C65         C458   1.471       .  S
C66          C67   1.395   1_655  A
C66         C305   1.473       .  S
C67          C68   1.398   1_556  A
C67          H72   1.084       .  S
C68          C69   1.413       .  A
C68         C362   1.474       .  S
C69          C70   1.395   1_554  A
C69         C290   1.469       .  S
C70          H71   1.084       .  S
C73          C74   1.419       .  A
C73          C78   1.404       .  A
C73         C434   1.485       .  S
C74          C75   1.397       .  A
C74         C257   1.475       .  S
C75          C76   1.394       .  A
C75          H80   1.085       .  S
C76          C77   1.409   1_655  A
C76         C377   1.470   1_655  S
C77          C78   1.398   1_455  A
C77         C233   1.475       .  S
C78          H79   1.084       .  S
O81         Ni89   1.911       .  S
O81          C91   1.281       .  A
O82         Ni89   1.914       .  S
O82          C92   1.282       .  A
O83         Ni89   1.912       .  S
O83          C93   1.281       .  A
O84         Ni89   1.907       .  S
O84          C94   1.280       .  A
O85         Ni90   1.915       .  S
O85          C94   1.281       .  A
O86         Ni90   1.914       .  S
O86          C93   1.281       .  A
O87         Ni90   1.916       .  S
O87          C92   1.281       .  A
O88         Ni90   1.917       .  S
O88          C91   1.281       .  A
Ni89        Ni90   2.386       .  S
C91         C194   1.479       .  S
C92         C242   1.486       .  S
C93         C209   1.479       .  S
C94         C281   1.479       .  S
O95        Ni103   1.916       .  S
O95         C105   1.281       .  A
O96        Ni103   1.912       .  S
O96         C106   1.281       .  A
O97        Ni103   1.914       .  S
O97         C107   1.281       .  A
O98        Ni103   1.912       .  S
O98         C108   1.280       .  A
O99        Ni104   1.909       .  S
O99         C108   1.281       .  A
O100       Ni104   1.908       .  S
O100        C107   1.280       .  A
O101       Ni104   1.908       .  S
O101        C106   1.279       .  A
O102       Ni104   1.904       .  S
O102        C105   1.279       .  A
Ni103      Ni104   2.388       .  S
C105        C266   1.470       .  S
C106        C146   1.480       .  S
C107        C314   1.479       .  S
C108        C161   1.471       .  S
C109        C110   1.412       .  A
C109        C114   1.398       .  A
C109        C185   1.477       .  S
C110        C111   1.394       .  A
C110        C578   1.467       .  S
C111        C112   1.395   1_554  A
C111        H116   1.085       .  S
C112        C113   1.413       .  A
C112        C137   1.473       .  S
C113        C114   1.399   1_556  A
C113        C506   1.475       .  S
C114        H115   1.084       .  S
C117        C118   1.414       .  A
C117        C122   1.401       .  A
C117        C218   1.480       .  S
C118        C119   1.395       .  A
C118        C593   1.473       .  S
C119        C120   1.397       .  A
C119        H124   1.085       .  S
C120        C121   1.414       .  A
C120        C170   1.478       .  S
C121        C122   1.401       .  A
C121        C521   1.475       .  S
C122        H123   1.084       .  S
C125        C126   1.411       .  A
C125        C130   1.396   1_565  A
C125        C554   1.474       .  S
C126        C127   1.397   1_565  A
C126        C338   1.470       .  S
C127        C128   1.399       .  A
C127        H132   1.084       .  S
C128        C129   1.416       .  A
C128        C482   1.480       .  S
C129        C130   1.397       .  A
C129        C401   1.473       .  S
C130        H131   1.085       .  S
C133        C134   1.400       .  A
C133        C138   1.396       .  A
C133        H143   1.084       .  S
C134        C135   1.404       .  A
C134        C139   1.463       .  S
C135        C136   1.395       .  A
C135        O140   1.372       .  S
C136        C137   1.403       .  A
C136        H141   1.084       .  S
C137        C138   1.406       .  A
C138        O142   1.372   1_556  S
C139        C144   1.401       .  A
C139        C148   1.397       .  A
O140        H156   0.992       .  S
O142        H153   0.992       .  S
C144        C145   1.396       .  A
C144        O149   1.372       .  S
C145        C146   1.408       .  A
C145        H150   1.083       .  S
C146        C147   1.415       .  A
C147        C148   1.396       .  A
C147        O151   1.372       .  S
C148        H152   1.084       .  S
O149        H154   0.992       .  S
O151        H155   0.992       .  S
C157        C158   1.402       .  A
C157        C162   1.400       .  A
C157        H167   1.084       .  S
C158        C159   1.405       .  A
C158        C163   1.471       .  S
C159        C160   1.393       .  A
C159        O164   1.372       .  S
C160        C161   1.402       .  A
C160        H165   1.084       .  S
C161        C162   1.411       .  A
C162        O166   1.372       .  S
C163        C168   1.406       .  A
C163        C172   1.401       .  A
O164        H180   0.990       .  S
O166        H177   0.992       .  S
C168        C169   1.399       .  A
C168        O173   1.372       .  S
C169        C170   1.404       .  A
C169        H174   1.083       .  S
C170        C171   1.407       .  A
C171        C172   1.394       .  A
C171        O175   1.372       .  S
C172        H176   1.084       .  S
O173        H178   0.991       .  S
O175        H179   0.992       .  S
C181        C182   1.402       .  A
C181        C186   1.398       .  A
C181        H191   1.083       .  S
C182        C183   1.406       .  A
C182        C187   1.473       .  S
C183        C184   1.397       .  A
C183        O188   1.372       .  S
C184        C185   1.403       .  A
C184        H189   1.083       .  S
C185        C186   1.407       .  A
C186        O190   1.372       .  S
C187        C192   1.405       .  A
C187        C196   1.401       .  A
O188        H204   0.992       .  S
O190        H201   0.992       .  S
C192        C193   1.398       .  A
C192        O197   1.372       .  S
C193        C194   1.406       .  A
C193        H198   1.083       .  S
C194        C195   1.412       .  A
C195        C196   1.399       .  A
C195        O199   1.371       .  S
C196        H200   1.084       .  S
O197        H202   0.992       .  S
O199        H203   0.992       .  S
C205        C206   1.401       .  A
C205        C210   1.399       .  A
C205        H215   1.084       .  S
C206        C207   1.406       .  A
C206        C211   1.476       .  S
C207        C208   1.399       .  A
C207        O212   1.373       .  S
C208        C209   1.406       .  A
C208        H213   1.084       .  S
C209        C210   1.412       .  A
C210        O214   1.372       .  S
C211        C216   1.407       .  A
C211        C220   1.404       .  A
O212        H228   0.992       .  S
O214        H225   0.992       .  S
C216        C217   1.395       .  A
C216        O221   1.371       .  S
C217        C218   1.403       .  A
C217        H222   1.083       .  S
C218        C219   1.408       .  A
C219        C220   1.400       .  A
C219        O223   1.372       .  S
C220        H224   1.084       .  S
O221        H226   0.992       .  S
O223        H227   0.992       .  S
C229        C230   1.403       .  A
C229        C234   1.397       .  A
C229        H239   1.084       .  S
C230        C231   1.408       .  A
C230        C235   1.477       .  S
C231        C232   1.400       .  A
C231        O236   1.371       .  S
C232        C233   1.401       .  A
C232        H237   1.083   1_455  S
C233        C234   1.406       .  A
C234        O238   1.371       .  S
C235        C240   1.405       .  A
C235        C244   1.401       .  A
O236        H252   0.992       .  S
O238        H249   0.992       .  S
C240        C241   1.398       .  A
C240        O245   1.372       .  S
C241        C242   1.407       .  A
C241        H246   1.083       .  S
C242        C243   1.415       .  A
C243        C244   1.401       .  A
C243        O247   1.371       .  S
C244        H248   1.084       .  S
O245        H250   0.992       .  S
O247        H251   0.992       .  S
C253        C254   1.402       .  A
C253        C258   1.398       .  A
C253        H263   1.084       .  S
C254        C255   1.404       .  A
C254        C259   1.468       .  S
C255        C256   1.397       .  A
C255        O260   1.371       .  S
C256        C257   1.404       .  A
C256        H261   1.084       .  S
C257        C258   1.406       .  A
C258        O262   1.373       .  S
C259        C264   1.405       .  A
C259        C268   1.398       .  A
O260        H276   0.992       .  S
O262        H273   0.992       .  S
C264        C265   1.400       .  A
C264        O269   1.371       .  S
C265        C266   1.405       .  A
C265        H270   1.084       .  S
C266        C267   1.409       .  A
C267        C268   1.393       .  A
C267        O271   1.372       .  S
C268        H272   1.082       .  S
O269        H274   0.992       .  S
O271        H275   0.992       .  S
C277        C278   1.399       .  A
C277        C282   1.399       .  A
C277        H287   1.084       .  S
C278        C279   1.403       .  A
C278        C283   1.467       .  S
C279        C280   1.394       .  A
C279        O284   1.372       .  S
C280        C281   1.406       .  A
C280        H285   1.083       .  S
C281        C282   1.414       .  A
C282        O286   1.371       .  S
C283        C288   1.406       .  A
C283        C292   1.401       .  A
O284        H300   0.992       .  S
O286        H297   0.992       .  S
C288        C289   1.394       .  A
C288        O293   1.371       .  S
C289        C290   1.400       .  A
C289        H294   1.084       .  S
C290        C291   1.406       .  A
C291        C292   1.398       .  A
C291        O295   1.373   1_455  S
C292        H296   1.084       .  S
O293        H298   0.992       .  S
O295        H299   0.992   1_655  S
C301        C302   1.401       .  A
C301        C306   1.393       .  A
C301        H311   1.084       .  S
C302        C303   1.407       .  A
C302        C307   1.471       .  S
C303        C304   1.399       .  A
C303        O308   1.371       .  S
C304        C305   1.402       .  A
C304        H309   1.084   1_655  S
C305        C306   1.406       .  A
C306        O310   1.371       .  S
C307        C312   1.405       .  A
C307        C316   1.400       .  A
O308        H324   0.992       .  S
O310        H321   0.992       .  S
C312        C313   1.396       .  A
C312        O317   1.373       .  S
C313        C314   1.406       .  A
C313        H318   1.083       .  S
C314        C315   1.413       .  A
C315        C316   1.398       .  A
C315        O319   1.371       .  S
C316        H320   1.084       .  S
O317        H322   0.992       .  S
O319        H323   0.992       .  S
C325        C326   1.401       .  A
C325        C330   1.401       .  A
C325        H335   1.084       .  S
C326        C327   1.404       .  A
C326        C331   1.474       .  S
C327        C328   1.392       .  A
C327        O332   1.371       .  S
C328        C329   1.406       .  A
C328        H333   1.083       .  S
C329        C330   1.414       .  A
C330        O334   1.371       .  S
C331        C336   1.408       .  A
C331        C340   1.403       .  A
O332        H348   0.992       .  S
O334        H345   0.992       .  S
C336        C337   1.398       .  A
C336        O341   1.371       .  S
C337        C338   1.401       .  A
C337        H342   1.084   1_565  S
C338        C339   1.405       .  A
C339        C340   1.394       .  A
C339        O343   1.372       .  S
C340        H344   1.084       .  S
O341        H346   0.992       .  S
O343        H347   0.992       .  S
C349        C350   1.401       .  A
C349        C354   1.397       .  A
C349        H359   1.084       .  S
C350        C351   1.405       .  A
C350        C355   1.471       .  S
C351        C352   1.396       .  A
C351        O356   1.372       .  S
C352        C353   1.405       .  A
C352        H357   1.083       .  S
C353        C354   1.412       .  A
C354        O358   1.372       .  S
C355        C360   1.406       .  A
C355        C364   1.402       .  A
O356        H372   0.992       .  S
O358        H369   0.992       .  S
C360        C361   1.394       .  A
C360        O365   1.372       .  S
C361        C362   1.402       .  A
C361        H366   1.083       .  S
C362        C363   1.406       .  A
C363        C364   1.397       .  A
C363        O367   1.372   1_455  S
C364        H368   1.084       .  S
O365        H370   0.992       .  S
O367        H371   0.992       .  S
C373        C374   1.401       .  A
C373        C378   1.394       .  A
C373        H383   1.084       .  S
C374        C375   1.407       .  A
C374        C379   1.468       .  S
C375        C376   1.398       .  A
C375        O380   1.372       .  S
C376        C377   1.401       .  A
C376        H381   1.084   1_455  S
C377        C378   1.405       .  A
C378        O382   1.372       .  S
C379        C384   1.403       .  A
C379        C388   1.399       .  A
O380        H396   0.992       .  S
O382        H393   0.992       .  S
C384        C385   1.397       .  A
C384        O389   1.372       .  S
C385        C386   1.408       .  A
C385        H390   1.083       .  S
C386        C387   1.413       .  A
C387        C388   1.395       .  A
C387        O391   1.371       .  S
C388        H392   1.084       .  S
O389        H394   0.992       .  S
O391        H395   0.992       .  S
C397        C398   1.401       .  A
C397        C402   1.398       .  A
C397        H407   1.084       .  S
C398        C399   1.405       .  A
C398        C403   1.467       .  S
C399        C400   1.395       .  A
C399        O404   1.372       .  S
C400        C401   1.401       .  A
C400        H405   1.084       .  S
C401        C402   1.407       .  A
C402        O406   1.372   1_545  S
C403        C408   1.405       .  A
C403        C412   1.398       .  A
O404        H420   0.991       .  S
O406        H417   0.992       .  S
C408        C409   1.395       .  A
C408        O413   1.372       .  S
C409        C410   1.405       .  A
C409        H414   1.084       .  S
C410        C411   1.413       .  A
C411        C412   1.397       .  A
C411        O415   1.372       .  S
C412        H416   1.084       .  S
O413        H418   0.992       .  S
O415        H419   0.992       .  S
C421        C422   1.400       .  A
C421        C426   1.400       .  A
C421        H431   1.084       .  S
C422        C423   1.404       .  A
C422        C427   1.474       .  S
C423        C424   1.398       .  A
C423        O428   1.372       .  S
C424        C425   1.407       .  A
C424        H429   1.083       .  S
C425        C426   1.414       .  A
C426        O430   1.371       .  S
C427        C432   1.406       .  A
C427        C436   1.401       .  A
O428        H444   0.991       .  S
O430        H441   0.992       .  S
C432        C433   1.397       .  A
C432        O437   1.372       .  S
C433        C434   1.406       .  A
C433        H438   1.083       .  S
C434        C435   1.410       .  A
C435        C436   1.398       .  A
C435        O439   1.372       .  S
C436        H440   1.084       .  S
O437        H442   0.992       .  S
O439        H443   0.992       .  S
C445        C446   1.399       .  A
C445        C450   1.396       .  A
C445        H455   1.084       .  S
C446        C447   1.401       .  A
C446        C451   1.464       .  S
C447        C448   1.394       .  A
C447        O452   1.372       .  S
C448        C449   1.407       .  A
C448        H453   1.083       .  S
C449        C450   1.413       .  A
C450        O454   1.372       .  S
C451        C456   1.405       .  A
C451        C460   1.400       .  A
O452        H468   0.992       .  S
O454        H465   0.992       .  S
C456        C457   1.393       .  A
C456        O461   1.372       .  S
C457        C458   1.402       .  A
C457        H462   1.084   1_655  S
C458        C459   1.406       .  A
C459        C460   1.396       .  A
C459        O463   1.372       .  S
C460        H464   1.084       .  S
O461        H466   0.992       .  S
O463        H467   0.992       .  S
C469        C470   1.402       .  A
C469        C474   1.399       .  A
C469        H479   1.084       .  S
C470        C471   1.405       .  A
C470        C475   1.473       .  S
C471        C472   1.396       .  A
C471        O476   1.372       .  S
C472        C473   1.405       .  A
C472        H477   1.084       .  S
C473        C474   1.409       .  A
C474        O478   1.371       .  S
C475        C480   1.405       .  A
C475        C484   1.403       .  A
O476        H492   0.992       .  S
O478        H489   0.992       .  S
C480        C481   1.395       .  A
C480        O485   1.372       .  S
C481        C482   1.403       .  A
C481        H486   1.083       .  S
C482        C483   1.408       .  A
C483        C484   1.400       .  A
C483        O487   1.372       .  S
C484        H488   1.084       .  S
O485        H490   0.991       .  S
O487        H491   0.992       .  S
C493        C494   1.401       .  A
C493        C498   1.397       .  A
C493        H503   1.084       .  S
C494        C495   1.406       .  A
C494        C499   1.476       .  S
C495        C496   1.397       .  A
C495        O500   1.372       .  S
C496        C497   1.406       .  A
C496        H501   1.083       .  S
C497        C498   1.413       .  A
C498        O502   1.372       .  S
C499        C504   1.408       .  A
C499        C508   1.403       .  A
O500        H516   0.992       .  S
O502        H513   0.992       .  S
C504        C505   1.397       .  A
C504        O509   1.372       .  S
C505        C506   1.402       .  A
C505        H510   1.084       .  S
C506        C507   1.405       .  A
C507        C508   1.397       .  A
C507        O511   1.372       .  S
C508        H512   1.084       .  S
O509        H514   0.992       .  S
O511        H515   0.992       .  S
C517        C518   1.404       .  A
C517        C522   1.400       .  A
C517        H527   1.084       .  S
C518        C519   1.409       .  A
C518        C523   1.479       .  S
C519        C520   1.398       .  A
C519        O524   1.373       .  S
C520        C521   1.401       .  A
C520        H525   1.084       .  S
C521        C522   1.405       .  A
C522        O526   1.371       .  S
C523        C528   1.406       .  A
C523        C532   1.403       .  A
O524        H540   0.992       .  S
O526        H537   0.992       .  S
C528        C529   1.393       .  A
C528        O533   1.370       .  S
C529        C530   1.405       .  A
C529        H534   1.083       .  S
C530        C531   1.412       .  A
C531        C532   1.402       .  A
C531        O535   1.371       .  S
C532        H536   1.084       .  S
O533        H538   0.991       .  S
O535        H539   0.992       .  S
C541        C542   1.400       .  A
C541        C546   1.399       .  A
C541        H551   1.084       .  S
C542        C543   1.403       .  A
C542        C547   1.470       .  S
C543        C544   1.395       .  A
C543        O548   1.371       .  S
C544        C545   1.406       .  A
C544        H549   1.083       .  S
C545        C546   1.413       .  A
C546        O550   1.371       .  S
C547        C552   1.407       .  A
C547        C556   1.401       .  A
O548        H564   0.992       .  S
O550        H561   0.992       .  S
C552        C553   1.397       .  A
C552        O557   1.371       .  S
C553        C554   1.401       .  A
C553        H558   1.084       .  S
C554        C555   1.407       .  A
C555        C556   1.397       .  A
C555        O559   1.371   1_565  S
C556        H560   1.084       .  S
O557        H562   0.992       .  S
O559        H563   0.992       .  S
C565        C566   1.398       .  A
C565        C570   1.396       .  A
C565        H575   1.084       .  S
C566        C567   1.404       .  A
C566        C571   1.464       .  S
C567        C568   1.394       .  A
C567        O572   1.372       .  S
C568        C569   1.404       .  A
C568        H573   1.084       .  S
C569        C570   1.412       .  A
C570        O574   1.372       .  S
C571        C576   1.405       .  A
C571        C580   1.401       .  A
O572        H588   0.991       .  S
O574        H585   0.992       .  S
C576        C577   1.392       .  A
C576        O581   1.372       .  S
C577        C578   1.400       .  A
C577        H582   1.083       .  S
C578        C579   1.405       .  A
C579        C580   1.396       .  A
C579        O583   1.372       .  S
C580        H584   1.084       .  S
O581        H586   0.992       .  S
O583        H587   0.992       .  S
C589        C590   1.402       .  A
C589        C594   1.396       .  A
C589        H599   1.084       .  S
C590        C591   1.407       .  A
C590        C595   1.471       .  S
C591        C592   1.396       .  A
C591        O596   1.372       .  S
C592        C593   1.402       .  A
C592        H597   1.084       .  S
C593        C594   1.406       .  A
C594        O598   1.372       .  S
C595        C600   1.405       .  A
C595        C604   1.400       .  A
O596        H612   0.992       .  S
O598        H609   0.991       .  S
C600        C601   1.396       .  A
C600        O605   1.372       .  S
C601        C602   1.405       .  A
C601        H606   1.084       .  S
C602        C603   1.412       .  A
C603        C604   1.399       .  A
C603        O607   1.372       .  S
C604        H608   1.084       .  S
O605        H610   0.992       .  S
O607        H611   0.992       .  S
C613        C614   1.401       .  A
C613        C618   1.394       .  A
C613        H623   1.084       .  S
C614        C615   1.406       .  A
C614        C619   1.475       .  S
C615        C616   1.398       .  A
C615        O620   1.372       .  S
C616        C617   1.408       .  A
C616        H621   1.083       .  S
C617        C618   1.414       .  A
C618        O622   1.372       .  S
C619        C624   1.409       .  A
C619        C628   1.404       .  A
O620        H636   0.992       .  S
O622        H633   0.992       .  S
C624        C625   1.394       .  A
C624        O629   1.372       .  S
C625        C626   1.400       .  A
C625        H630   1.084       .  S
C626        C627   1.404       .  A
C627        C628   1.397       .  A
C627        O631   1.371   1_545  S
C628        H632   1.083       .  S
O629        H634   0.992       .  S
O631        H635   0.992       .  S
C637        C638   1.401       .  A
C637        C642   1.398       .  A
C637        H647   1.084       .  S
C638        C639   1.406       .  A
C638        C643   1.478       .  S
C639        C640   1.400       .  A
C639        O644   1.372       .  S
C640        C641   1.407       .  A
C640        H645   1.083       .  S
C641        C642   1.414       .  A
C642        O646   1.372       .  S
C643        C648   1.407       .  A
C643        C652   1.403       .  A
O644        H660   0.992       .  S
O646        H657   0.992       .  S
C648        C649   1.398       .  A
C648        O653   1.372       .  S
C649        C650   1.403       .  A
C649        H654   1.083       .  S
C650        C651   1.408       .  A
C651        C652   1.401       .  A
C651        O655   1.371       .  S
C652        H656   1.084       .  S
O653        H658   0.992       .  S
O655        H659   0.992       .  S
C661        C662   1.405       .  A
C661        C666   1.398       .  A
C661        H671   1.083       .  S
C662        C663   1.411       .  A
C662        C667   1.483       .  S
C663        C664   1.397       .  A
C663        O668   1.372       .  S
C664        C665   1.400       .  A
C664        H669   1.084       .  S
C665        C666   1.407       .  A
C666        O670   1.371       .  S
C667        C672   1.408       .  A
C667        C676   1.403       .  A
O668        H684   0.992       .  S
O670        H681   0.991   1_554  S
C672        C673   1.397       .  A
C672        O677   1.370       .  S
C673        C674   1.404       .  A
C673        H678   1.083       .  S
C674        C675   1.413       .  A
C675        C676   1.399       .  A
C675        O679   1.372       .  S
C676        H680   1.083       .  S
O677        H682   0.992       .  S
O679        H683   0.992       .  S
C685        C686   1.401       .  A
C685        C690   1.396       .  A
C685        H695   1.080       .  S
C686        C687   1.405       .  A
C686        C691   1.475       .  S
C687        C688   1.397       .  A
C687        O692   1.372       .  S
C688        C689   1.408       .  A
C688        H693   1.083       .  S
C689        C690   1.411       .  A
C690        O694   1.372       .  S
C691        C696   1.407       .  A
C691        C700   1.404       .  A
O692        H708   0.992       .  S
O694        H705   0.992       .  S
C696        C697   1.396       .  A
C696        O701   1.372       .  S
C697        C698   1.402       .  A
C697        H702   1.084       .  S
C698        C699   1.407       .  A
C699        C700   1.398       .  A
C699        O703   1.372       .  S
C700        H704   1.084       .  S
O701        H706   0.992       .  S
O703        H707   0.991   1_554  S
