geometry optimzed in LAMMPS
_audit_creation_date              2020-11-30 
_audit_creation_method            'lammps2cif' 
_symmetry_space_group_name_H-M    'P1' 
_symmetry_Int_Tables_number       1 
_symmetry_cell_setting            triclinic 
loop_ 
_symmetry_equiv_pos_as_xyz 
  x,y,z 
_cell_length_a                    93.91644519 
_cell_length_b                    93.67784732732956 
_cell_length_c                    25.258701583945374 
_cell_angle_alpha                 89.86875128387572 
_cell_angle_beta                  90.01547086003234 
_cell_angle_gamma                 89.92048222896523 
loop_ 
_atom_site_label 
_atom_site_type_symbol 
_atom_site_fract_x 
_atom_site_fract_y 
_atom_site_fract_z 
_atom_site_charge 
C1          C  0.87627658  0.73800963  0.96701161     0.86200
C2          C  0.86371730  0.74843404  0.96826286    -0.54100
C3          C  0.86394808  0.75801924  0.00909541     0.09100
C4          C  0.87710980  0.75618335  0.04557740     0.20100
C5          C  0.88952869  0.74752568  0.96722774    -0.54800
C6          C  0.89014574  0.75707230  0.00808856     0.09200
C7          C  0.87631083  0.73099673  0.02207626    -0.54300
C8          C  0.87678592  0.74041258  0.06308659     0.09800
H9          H  0.85558847  0.74842127  0.93772678     0.14300
H10         H  0.87752230  0.76362827  0.07959355     0.00000
H11         H  0.89760422  0.74685881  0.93659433     0.14600
H12         H  0.87624951  0.71963317  0.02957584     0.14400
O13         O  0.88415223  0.61840886  0.55495902    -0.74700
O14         O  0.88458320  0.64908884  0.45398735    -0.74800
O15         O  0.88480149  0.64727513  0.56071760    -0.74800
O16         O  0.88395962  0.62011213  0.44782877    -0.74900
O17         O  0.86024239  0.62049872  0.44892134    -0.74800
O18         O  0.86108395  0.64799851  0.56091458    -0.74800
O19         O  0.86086649  0.64949362  0.45405441    -0.74700
O20         O  0.86044369  0.61910542  0.55633704    -0.74800
Ni21       Ni  0.88521014  0.63368408  0.50427216     1.25400
Ni22       Ni  0.85981545  0.63427234  0.50500943     1.25400
C23         C  0.87223450  0.61378998  0.57282948     0.87500
C24         C  0.87280073  0.65451382  0.43790790     0.87400
C25         C  0.87309082  0.65221538  0.57918260     0.87400
C26         C  0.87197298  0.61572781  0.42992651     0.87600
C27         C  0.87327174  0.25992804  0.05164653     0.86200
C28         C  0.86161443  0.24842835  0.04980915    -0.54100
C29         C  0.86218820  0.23978077  0.00639059     0.09100
C30         C  0.87456625  0.24338694  0.96831337     0.20100
C31         C  0.88720445  0.25147950  0.04683227    -0.54800
C32         C  0.88811199  0.24282560  0.00328224     0.09200
C33         C  0.87175879  0.26786858  0.99895835    -0.54300
C34         C  0.87243614  0.25936424  0.95524031     0.09800
H35         H  0.85367095  0.24676493  0.08012187     0.14300
H36         H  0.87490396  0.23656967  0.93250878     0.00000
H37         H  0.89544194  0.25210019  0.07685310     0.14600
H38         H  0.87046366  0.27937973  0.99650550     0.14400
O39         O  0.88600917  0.38129962  0.45784416    -0.74700
O40         O  0.88603861  0.35097134  0.56050300    -0.74800
O41         O  0.88604559  0.35240527  0.45337745    -0.74800
O42         O  0.88607367  0.37992335  0.56512092    -0.74900
O43         O  0.86235185  0.37993313  0.56536803    -0.74800
O44         O  0.86231911  0.35248213  0.45298975    -0.74800
O45         O  0.86232063  0.35098141  0.56020227    -0.74700
O46         O  0.86228894  0.38132095  0.45791443    -0.74800
Ni47       Ni  0.88687933  0.36615379  0.50925850     1.25400
Ni48       Ni  0.86147882  0.36618693  0.50919713     1.25400
C49         C  0.87413676  0.38625222  0.44059130     0.87500
C50         C  0.87416768  0.34588009  0.57702436     0.87400
C51         C  0.87419914  0.34794677  0.43450663     0.87400
C52         C  0.87423066  0.38450723  0.58369827     0.87600
O53         O  0.86150742  0.48556082  0.06119296    -0.74700
O54         O  0.86108862  0.51416290  0.95210033    -0.74800
O55         O  0.86169533  0.48523981  0.95384271    -0.74800
O56         O  0.86085700  0.51449896  0.05945926    -0.74900
O57         O  0.88457258  0.51498560  0.06023376    -0.74800
O58         O  0.88541097  0.48576836  0.95414030    -0.74800
O59         O  0.88479994  0.51471854  0.95295196    -0.74700
O60         O  0.88521995  0.48604915  0.06179264    -0.74800
Ni61       Ni  0.86045194  0.49984502  0.00663072     1.25400
Ni62       Ni  0.88584340  0.50038587  0.00730165     1.25400
C63         C  0.87343398  0.48110517  0.07969232     0.87500
C64         C  0.87287469  0.51918806  0.93451080     0.87400
C65         C  0.87367576  0.48069436  0.93636175     0.87400
C66         C  0.87256588  0.51960386  0.07727057     0.87600
C67         C  0.74780333  0.86576437  0.05018838     0.86200
C68         C  0.75943502  0.85430345  0.05307519    -0.54100
C69         C  0.76834527  0.85392875  0.01027907     0.09100
C70         C  0.76461939  0.86518592  0.96753201     0.20100
C71         C  0.75611281  0.87972408  0.04090234    -0.54800
C72         C  0.76496882  0.87947747  0.99789724     0.09200
C73         C  0.74010824  0.86301476  0.99794999    -0.54300
C74         C  0.74871341  0.86268027  0.95446623     0.09800
H75         H  0.76048635  0.84708762  0.08656248     0.14300
H76         H  0.77168559  0.86494872  0.93234189     0.00000
H77         H  0.75601297  0.88872087  0.06760561     0.14600
H78         H  0.72862231  0.86178689  0.99560147     0.14400
O79         O  0.62720366  0.87729506  0.45761040    -0.74700
O80         O  0.65793676  0.87639601  0.55811913    -0.74800
O81         O  0.65596329  0.87606869  0.45101050    -0.74800
O82         O  0.62903809  0.87765088  0.56492765    -0.74900
O83         O  0.62806118  0.85389561  0.56621350    -0.74800
O84         O  0.65508471  0.85230597  0.45267018    -0.74800
O85         O  0.65691413  0.85264678  0.55973039    -0.74700
O86         O  0.62634060  0.85353608  0.45887005    -0.74800
Ni87       Ni  0.64256555  0.87769636  0.50793814     1.25400
Ni88       Ni  0.64155849  0.85226114  0.50949375     1.25400
C89         C  0.62178315  0.86554702  0.44120487     0.87500
C90         C  0.66258511  0.86435752  0.57526662     0.87400
C91         C  0.65993677  0.86393096  0.43288579     0.87400
C92         C  0.62403836  0.86602879  0.58428181     0.87600
C93         C  0.26957108  0.86536381  0.96602432     0.86200
C94         C  0.25850457  0.85329223  0.96516973    -0.54100
C95         C  0.24968349  0.85289356  0.00820297     0.09100
C96         C  0.25251961  0.86507297  0.04812934     0.20100
C97         C  0.26069576  0.87897697  0.97235695    -0.54800
C98         C  0.25173474  0.87898365  0.01500391     0.09200
C99         C  0.27721703  0.86344946  0.01911559    -0.54300
C100        C  0.26844749  0.86336991  0.06222200     0.09800
H101        H  0.25739723  0.84566251  0.93352564     0.14300
H102        H  0.24543360  0.86495958  0.08327797     0.00000
H103        H  0.26126417  0.88776816  0.94432774     0.14600
H104        H  0.28871885  0.86252632  0.02234737     0.14400
O105        O  0.35898625  0.87882190  0.45545418    -0.74700
O106        O  0.39011082  0.87969104  0.55459580    -0.74800
O107        O  0.38787819  0.87889958  0.44729420    -0.74800
O108        O  0.36139408  0.87974387  0.56230945    -0.74900
O109        O  0.36155558  0.85597216  0.56549820    -0.74800
O110        O  0.38788226  0.85512490  0.44945876    -0.74800
O111        O  0.39024299  0.85591967  0.55663937    -0.74700
O112        O  0.35904917  0.85506032  0.45872734    -0.74800
Ni113      Ni  0.37459809  0.88013157  0.50469370     1.25400
Ni114      Ni  0.37469537  0.85468091  0.50757598     1.25400
C115        C  0.35375163  0.86677416  0.44123555     0.87500
C116        C  0.39518562  0.86791203  0.57259637     0.87400
C117        C  0.39231468  0.86689983  0.42942558     0.87400
C118        C  0.35718454  0.86802029  0.58321911     0.87600
O119        O  0.52203867  0.87864487  0.06465036    -0.74700
O120        O  0.49452748  0.87891523  0.95215627    -0.74800
O121        O  0.49324493  0.87858228  0.05944221    -0.74800
O122        O  0.52346781  0.87899726  0.95738776    -0.74900
O123        O  0.52348157  0.85522006  0.95602190    -0.74800
O124        O  0.49331750  0.85480068  0.05852551    -0.74800
O125        O  0.49456794  0.85514166  0.95126227    -0.74700
O126        O  0.52222350  0.85486923  0.06345215    -0.74800
Ni127      Ni  0.50831842  0.87962009  0.00837320     1.25400
Ni128      Ni  0.50840823  0.85416357  0.00727434     1.25400
C129        C  0.52666976  0.86671131  0.08274191     0.87500
C130        C  0.48990028  0.86708680  0.93335193     0.87400
C131        C  0.48830149  0.86662912  0.07595676     0.87400
C132        C  0.52850141  0.86718687  0.93988523     0.87600
C133        C  0.74798716  0.13104895  0.96197187     0.86200
C134        C  0.75903085  0.14302593  0.96105377    -0.54100
C135        C  0.76728458  0.14402396  0.00556903     0.09100
C136        C  0.76370309  0.13240920  0.04736671     0.20100
C137        C  0.75676628  0.11750205  0.97269274    -0.54800
C138        C  0.76500137  0.11812365  0.01721633     0.09200
C139        C  0.73950485  0.13335531  0.01284046    -0.54300
C140        C  0.74755084  0.13413784  0.05774814     0.09800
H141        H  0.76033968  0.14984639  0.92664276     0.14300
H142        H  0.77021223  0.13290594  0.08392671     0.00000
H143        H  0.75707735  0.10829271  0.94703664     0.14600
H144        H  0.72795461  0.13398124  0.01311839     0.14400
O145        O  0.65719423  0.12224004  0.45515174    -0.74700
O146        O  0.62746678  0.12117355  0.55880493    -0.74800
O147        O  0.62831111  0.12143513  0.45166886    -0.74800
O148        O  0.65621267  0.12202272  0.56191722    -0.74900
O149        O  0.65570201  0.14580937  0.56180027    -0.74800
O150        O  0.62738308  0.14520296  0.45284972    -0.74800
O151        O  0.62691778  0.14495036  0.56015942    -0.74700
O152        O  0.65633571  0.14600971  0.45473712    -0.74800
Ni153      Ni  0.64230967  0.12088204  0.50679323     1.25400
Ni154      Ni  0.64154837  0.14634568  0.50731579     1.25400
C155        C  0.66180670  0.13428195  0.43822319     0.87500
C156        C  0.62238034  0.13286669  0.57707107     0.87400
C157        C  0.62312574  0.13321456  0.43436490     0.87400
C158        C  0.66059609  0.13400470  0.57996615     0.87600
C159        C  0.26846031  0.13517778  0.05350665     0.86200
C160        C  0.25720718  0.14703644  0.04842051    -0.54100
C161        C  0.24927362  0.14639503  0.00314177     0.09100
C162        C  0.25328759  0.13378511  0.96667569     0.20100
C163        C  0.25999996  0.12131032  0.04757474    -0.54800
C164        C  0.25211121  0.12035404  0.00217654     0.09200
C165        C  0.27720608  0.13638703  0.00259289    -0.54300
C166        C  0.26943158  0.13564967  0.95698959     0.09800
H167        H  0.25529009  0.15523906  0.07760449     0.14300
H168        H  0.24695395  0.13334643  0.92964030     0.00000
H169        H  0.26011119  0.11306844  0.07785285     0.14600
H170        H  0.28872686  0.13740159  0.00285097     0.14400
O171        O  0.36046848  0.12045730  0.55910033    -0.74700
O172        O  0.39024716  0.12043203  0.45514266    -0.74800
O173        O  0.38940051  0.12015742  0.56234878    -0.74800
O174        O  0.36143372  0.12075876  0.45190256    -0.74900
O175        O  0.36171774  0.14454247  0.45250339    -0.74800
O176        O  0.38955335  0.14394008  0.56312225    -0.74800
O177        O  0.39050283  0.14421149  0.45600576    -0.74700
O178        O  0.36067872  0.14423542  0.55969066    -0.74800
Ni179      Ni  0.37537889  0.11960453  0.50716175     1.25400
Ni180      Ni  0.37561810  0.14507088  0.50791206     1.25400
C181        C  0.35557350  0.13235620  0.57633778     0.87500
C182        C  0.39526959  0.13231890  0.43825681     0.87400
C183        C  0.39417505  0.13196257  0.58074017     0.87400
C184        C  0.35700653  0.13276030  0.43377737     0.87600
O185        O  0.52292555  0.11935386  0.95335193    -0.74700
O186        O  0.49448510  0.11986220  0.06208749    -0.74800
O187        O  0.49410765  0.11959335  0.95468455    -0.74800
O188        O  0.52331269  0.11964361  0.06066518    -0.74900
O189        O  0.52332369  0.14342943  0.05997560    -0.74800
O190        O  0.49432245  0.14337516  0.95338421    -0.74800
O191        O  0.49450867  0.14364406  0.06073020    -0.74700
O192        O  0.52312255  0.14313632  0.95257062    -0.74800
Ni193      Ni  0.50869882  0.11876937  0.00773798     1.25400
Ni194      Ni  0.50882692  0.14423864  0.00662894     1.25400
C195        C  0.52770813  0.13116495  0.93488803     0.87500
C196        C  0.48981325  0.13182835  0.07949282     0.87400
C197        C  0.48944733  0.13147752  0.93627558     0.87400
C198        C  0.52809429  0.13155491  0.07804510     0.87600
C199        C  0.14321862  0.73843152  0.05041352     0.86200
C200        C  0.15590668  0.74861446  0.04403327    -0.54100
C201        C  0.15518306  0.75719161  0.00038514     0.09100
C202        C  0.14171724  0.75478829  0.96642799     0.20100
C203        C  0.13014468  0.74823167  0.04924111    -0.54800
C204        C  0.12911313  0.75675333  0.00524695     0.09200
C205        C  0.14267075  0.73024560  0.99815568    -0.54300
C206        C  0.14173512  0.73865167  0.95413692     0.09800
H207        H  0.16463474  0.74954671  0.07168948     0.14300
H208        H  0.14118876  0.76155192  0.93039109     0.00000
H209        H  0.12247548  0.74840972  0.08135715     0.14600
H210        H  0.14289094  0.71865967  0.99625372     0.14400
O211        O  0.13196951  0.61713037  0.45703799    -0.74700
O212        O  0.13103126  0.64733556  0.55951508    -0.74800
O213        O  0.13103086  0.64597681  0.45247572    -0.74800
O214        O  0.13198536  0.61837036  0.56407769    -0.74900
O215        O  0.15570083  0.61916662  0.56412472    -0.74800
O216        O  0.15475180  0.64666465  0.45233220    -0.74800
O217        O  0.15473727  0.64812104  0.55915578    -0.74700
O218        O  0.15567803  0.61785575  0.45693176    -0.74800
Ni219      Ni  0.13066006  0.63217676  0.50837904     1.25400
Ni220      Ni  0.15605540  0.63297261  0.50823794     1.25400
C221        C  0.14397334  0.61256785  0.43970464     0.87500
C222        C  0.14272786  0.65285606  0.57577302     0.87400
C223        C  0.14275027  0.65081028  0.43374988     0.87400
C224        C  0.14400550  0.61410514  0.58219434     0.87600
C225        C  0.13924354  0.26039675  0.96413198     0.86200
C226        C  0.15109687  0.24924959  0.95946538    -0.54100
C227        C  0.15250709  0.24041523  0.00233958     0.09100
C228        C  0.14137400  0.24343135  0.04626084     0.20100
C229        C  0.12580416  0.25152871  0.97498581    -0.54800
C230        C  0.12678447  0.24267493  0.01792923     0.09200
C231        C  0.14219196  0.26813586  0.01619866    -0.54300
C232        C  0.14334450  0.25942143  0.05936799     0.09800
H233        H  0.15771717  0.24841680  0.92438294     0.14300
H234        H  0.14229715  0.23638568  0.08145424     0.00000
H235        H  0.11645474  0.25153888  0.95005240     0.14600
H236        H  0.14302468  0.27968264  0.01866443     0.14400
O237        O  0.13229718  0.34987506  0.45367732    -0.74700
O238        O  0.13153086  0.38133919  0.55124043    -0.74800
O239        O  0.13244236  0.37869522  0.44422281    -0.74800
O240        O  0.13127502  0.35257274  0.56029856    -0.74900
O241        O  0.15499093  0.35239186  0.56338080    -0.74800
O242        O  0.15615731  0.37872779  0.44731628    -0.74800
O243        O  0.15523328  0.38113780  0.55433742    -0.74700
O244        O  0.15600210  0.34984741  0.45656222    -0.74800
Ni245      Ni  0.13104892  0.36563660  0.50218870     1.25400
Ni246      Ni  0.15643888  0.36552624  0.50542599     1.25400
C247        C  0.14429512  0.34461005  0.43918152     0.87500
C248        C  0.14326929  0.38631214  0.56951071     0.87400
C249        C  0.14445869  0.38306388  0.42662310     0.87400
C250        C  0.14291744  0.34820103  0.58116559     0.87600
O251        O  0.13170177  0.48525377  0.95080191    -0.74700
O252        O  0.13229973  0.51323448  0.06175315    -0.74800
O253        O  0.13219400  0.51414441  0.95438697    -0.74800
O254        O  0.13187288  0.48426570  0.05816278    -0.74900
O255        O  0.15560419  0.48403839  0.05786664    -0.74800
O256        O  0.15591946  0.51369378  0.95407476    -0.74800
O257        O  0.15601480  0.51291048  0.06117101    -0.74700
O258        O  0.15541577  0.48484210  0.95043998    -0.74800
Ni259      Ni  0.13116809  0.49923832  0.00633294     1.25400
Ni260      Ni  0.15657019  0.49884662  0.00589549     1.25400
C261        C  0.14345936  0.48046730  0.93203827     0.87500
C262        C  0.14424926  0.51775035  0.07969815     0.87400
C263        C  0.14413561  0.51880269  0.93694781     0.87400
C264        C  0.14372436  0.47924562  0.07521187     0.87600
O265        O  0.15819035  0.98633641  0.05409712    -0.74700
O266        O  0.12951062  0.01523904  0.05210392    -0.74800
O267        O  0.12932891  0.98636819  0.05501615    -0.74800
O268        O  0.15837769  0.01529722  0.04969887    -0.74900
O269        O  0.15796781  0.01428174  0.96160627    -0.74800
O270        O  0.12893005  0.98593178  0.96683330    -0.74800
O271        O  0.12910859  0.01481638  0.96394373    -0.74700
O272        O  0.15782313  0.98527225  0.96602990    -0.74800
Ni273      Ni  0.14388354  0.00083807  0.05583143     1.25400
Ni274      Ni  0.14346706  0.00004623  0.96146632     1.25400
C275        C  0.16269608  0.98089753  0.01077951     0.87500
C276        C  0.12448633  0.01979229  0.00808228     0.87400
C277        C  0.12425216  0.98148905  0.01147951     0.87400
C278        C  0.16290367  0.01960433  0.00444266     0.87600
O279        O  0.99436942  0.14784868  0.96600529    -0.74700
O280        O  0.02294691  0.11892234  0.97312359    -0.74800
O281        O  0.99414721  0.11892015  0.96746891    -0.74800
O282        O  0.02324126  0.14781175  0.97320852    -0.74900
O283        O  0.02171837  0.14771654  0.06122871    -0.74800
O284        O  0.99279008  0.11929171  0.05552188    -0.74800
O285        O  0.02164337  0.11876951  0.06117280    -0.74700
O286        O  0.99291409  0.14819765  0.05401959    -0.74800
Ni287      Ni  0.00872330  0.13338304  0.96683598     1.25400
Ni288      Ni  0.00721795  0.13350173  0.06110772     1.25400
C289        C  0.98884294  0.15279209  0.00850164     0.87500
C290        C  0.02705977  0.11402605  0.01793034     0.87400
C291        C  0.98866657  0.11436569  0.01089165     0.87400
C292        C  0.02732079  0.15245841  0.01852875     0.87600
O293        O  0.99555256  0.85219503  0.04953781    -0.74700
O294        O  0.02430743  0.88096227  0.04871361    -0.74800
O295        O  0.99547197  0.88111717  0.04979882    -0.74800
O296        O  0.02443198  0.85205481  0.04747205    -0.74900
O297        O  0.02408844  0.85254663  0.95926754    -0.74800
O298        O  0.99513718  0.88114073  0.96159635    -0.74800
O299        O  0.02393905  0.88139892  0.96052101    -0.74700
O300        O  0.99516438  0.85225771  0.96134270    -0.74800
Ni301      Ni  0.00995015  0.86656265  0.05202247     1.25400
Ni302      Ni  0.00956588  0.86682456  0.95756517     1.25400
C303        C  0.99052886  0.84750327  0.00579796     0.87500
C304        C  0.02887095  0.88597917  0.00469725     0.87400
C305        C  0.99054936  0.88593356  0.00583368     0.87400
C306        C  0.02914745  0.84763960  0.00271755     0.87600
O307        O  0.85968753  0.01245704  0.05546155    -0.74700
O308        O  0.88921317  0.98458032  0.04845273    -0.74800
O309        O  0.88848920  0.01339505  0.05436741    -0.74800
O310        O  0.86039781  0.98354752  0.04837778    -0.74900
O311        O  0.86022989  0.98523801  0.96039802    -0.74800
O312        O  0.88829693  0.01467171  0.96627962    -0.74800
O313        O  0.88910953  0.98585623  0.96036217    -0.74700
O314        O  0.85944363  0.01416807  0.96747895    -0.74800
Ni315      Ni  0.87443234  0.99844076  0.05476628     1.25400
Ni316      Ni  0.87424272  0.00003423  0.96049140     1.25400
C317        C  0.85476997  0.01806292  0.01297498     0.87500
C318        C  0.89411080  0.98062278  0.00355181     0.87400
C319        C  0.89310979  0.01886846  0.01103192     0.87400
C320        C  0.85572638  0.97942491  0.00315309     0.87600
C321        C  0.97947159  0.89720005  0.00554140    -0.03700
C322        C  0.97442878  0.90315478  0.05306633    -0.09400
C323        C  0.96402459  0.91386770  0.05211508    -0.17100
C324        C  0.95854835  0.91873664  0.00374313     0.25100
C325        C  0.96349290  0.91286988  0.95635111    -0.18700
C326        C  0.97387570  0.90218997  0.95717818    -0.07700
C327        C  0.94779221  0.92967935  0.00253048    -0.14100
C328        C  0.93867069  0.93873635  0.00130584    -0.13800
C329        C  0.92762348  0.94938636  0.00132831     0.25000
C330        C  0.92242265  0.95498913  0.95361781    -0.19200
C331        C  0.91151683  0.96519717  0.95403637    -0.07700
C332        C  0.90569619  0.96989188  0.00227764    -0.03800
C333        C  0.91107541  0.96422268  0.04994929    -0.09100
C334        C  0.92194456  0.95405085  0.04941090    -0.16700
H335        H  0.97852703  0.89956293  0.09089839     0.11400
H336        H  0.96024873  0.91834137  0.08906223     0.10700
H337        H  0.95931622  0.91654620  0.91871241     0.10600
H338        H  0.97751072  0.89784675  0.91985148     0.11200
H339        H  0.92675766  0.95143606  0.91614351     0.11200
H340        H  0.90763075  0.96937073  0.91671513     0.11200
H341        H  0.90686670  0.96760902  0.08780802     0.11300
H342        H  0.92588719  0.94978543  0.08654750     0.10200
C343        C  0.97745775  0.10326395  0.01026837    -0.03700
C344        C  0.97407685  0.09586627  0.96354546    -0.09400
C345        C  0.96364112  0.08519955  0.96396554    -0.17100
C346        C  0.95643739  0.08186170  0.01095403     0.25100
C347        C  0.95967982  0.08923064  0.05746485    -0.18700
C348        C  0.97011605  0.09983108  0.05720211    -0.07700
C349        C  0.94568245  0.07092577  0.01167805    -0.14100
C350        C  0.93658292  0.06185777  0.01273608    -0.13800
C351        C  0.92564983  0.05109690  0.01280333     0.25000
C352        C  0.91958299  0.04643966  0.06046378    -0.19200
C353        C  0.90895013  0.03596830  0.06015369    -0.07700
C354        C  0.90423679  0.03007143  0.01206317    -0.03800
C355        C  0.91039275  0.03488026  0.96443414    -0.09100
C356        C  0.92102310  0.04529010  0.96487016    -0.16700
H357        H  0.97956135  0.09823520  0.92686748     0.11400
H358        H  0.96119983  0.07955610  0.92769682     0.10700
H359        H  0.95415708  0.08676384  0.09401254     0.10600
H360        H  0.97241723  0.10534775  0.09384153     0.11200
H361        H  0.92307948  0.05088331  0.09782677     0.11200
H362        H  0.90442443  0.03250805  0.09745138     0.11200
H363        H  0.90705772  0.03054533  0.92671755     0.11300
H364        H  0.92563663  0.04881050  0.92776139     0.10200
C365        C  0.03825493  0.10281196  0.01879274    -0.03700
C366        C  0.04449888  0.09826534  0.97098947    -0.09400
C367        C  0.05514300  0.08783934  0.97087649    -0.17100
C368        C  0.05975221  0.08172986  0.01842441     0.25100
C369        C  0.05358551  0.08609722  0.06630316    -0.18700
C370        C  0.04290127  0.09658454  0.06653876    -0.07700
C371        C  0.07085956  0.07106498  0.01757352    -0.14100
C372        C  0.08020918  0.06221492  0.01519885    -0.13800
C373        C  0.09137651  0.05162905  0.01284020     0.25000
C374        C  0.09620532  0.04517948  0.05947812    -0.19200
C375        C  0.10698764  0.03489782  0.05769982    -0.07700
C376        C  0.11312764  0.03083563  0.00911243    -0.03800
C377        C  0.10821417  0.03736182  0.96230367    -0.09100
C378        C  0.09742178  0.04771556  0.96421873    -0.16700
H379        H  0.04121062  0.10280723  0.93346356     0.11400
H380        H  0.05981132  0.08456654  0.93359122     0.10700
H381        H  0.05706083  0.08143608  0.10341740     0.10600
H382        H  0.03831218  0.09982239  0.10396056     0.11200
H383        H  0.09162393  0.04809120  0.09731883     0.11200
H384        H  0.11045870  0.03007480  0.09451329     0.11200
H385        H  0.11271547  0.03449397  0.92432024     0.11300
H386        H  0.09377620  0.05264065  0.92780197     0.10200
C387        C  0.03995180  0.89720929  0.00535841    -0.03700
C388        C  0.04478115  0.90350229  0.95803847    -0.09400
C389        C  0.05517869  0.91418577  0.95922539    -0.17100
C390        C  0.06087401  0.91868486  0.00762934     0.25100
C391        C  0.05616967  0.91245599  0.05481905    -0.18700
C392        C  0.04578357  0.90180519  0.05375853    -0.07700
C393        C  0.07153747  0.92968819  0.00908549    -0.14100
C394        C  0.08050827  0.93886694  0.01066601    -0.13800
C395        C  0.09130269  0.94974615  0.01149621     0.25000
C396        C  0.09801911  0.95345278  0.05903516    -0.19200
C397        C  0.10869648  0.96386943  0.05938503    -0.07700
C398        C  0.11281133  0.97063468  0.01205053    -0.03800
C399        C  0.10590489  0.96688489  0.96459102    -0.09100
C400        C  0.09522417  0.95653555  0.96438849    -0.16700
H401        H  0.04050488  0.90021220  0.92017401     0.11400
H402        H  0.05876034  0.91894265  0.92243692     0.10700
H403        H  0.06051591  0.91584763  0.09248475     0.10600
H404        H  0.04232598  0.89718030  0.09091223     0.11200
H405        H  0.09505072  0.94825014  0.09575167     0.11200
H406        H  0.11380768  0.96652250  0.09650652     0.11200
H407        H  0.10875189  0.97194197  0.92748840     0.11300
H408        H  0.09008294  0.95376898  0.92740267     0.10200
C409        C  0.14305284  0.39798487  0.60936071    -0.03700
C410        C  0.15582631  0.40298944  0.63186820    -0.09400
C411        C  0.15563057  0.41360571  0.67082129    -0.17100
C412        C  0.14268985  0.41942935  0.68793360     0.25100
C413        C  0.12993006  0.41461016  0.66549328    -0.18700
C414        C  0.13009561  0.40397383  0.62653720    -0.07700
C415        C  0.14252849  0.43020326  0.72888999    -0.14100
C416        C  0.14256295  0.43909100  0.76359506    -0.13800
C417        C  0.14276552  0.44958068  0.80555272     0.25000
C418        C  0.13001144  0.45436675  0.82817166    -0.19200
C419        C  0.13022098  0.46440454  0.86922492    -0.07700
C420        C  0.14321868  0.46980952  0.88844406    -0.03800
C421        C  0.15597958  0.46496423  0.86532934    -0.09100
C422        C  0.15574009  0.45494299  0.82423653    -0.16700
H423        H  0.16598945  0.39861097  0.61976190     0.11400
H424        H  0.16558523  0.41721269  0.68782001     0.10700
H425        H  0.11983494  0.41900927  0.67834193     0.10600
H426        H  0.12007031  0.40037250  0.61017772     0.11200
H427        H  0.11989259  0.45031618  0.81416161     0.11200
H428        H  0.12019828  0.46789610  0.88599367     0.11200
H429        H  0.16616697  0.46891413  0.87897006     0.11300
H430        H  0.16569288  0.45134635  0.80713458     0.10200
C431        C  0.14378318  0.46775967  0.11534853    -0.03700
C432        C  0.13123596  0.46027017  0.12759134    -0.09400
C433        C  0.13146216  0.44921970  0.16487307    -0.17100
C434        C  0.14419156  0.44560483  0.19045401     0.25100
C435        C  0.15667883  0.45309506  0.17893290    -0.18700
C436        C  0.15649862  0.46408267  0.14152705    -0.07700
C437        C  0.14447831  0.43422404  0.22858677    -0.14100
C438        C  0.14477154  0.42481107  0.26106932    -0.13800
C439        C  0.14488762  0.41385576  0.30088951     0.25000
C440        C  0.15755476  0.41035331  0.32708940    -0.19200
C441        C  0.15750501  0.40012774  0.36748161    -0.07700
C442        C  0.14474295  0.39336042  0.38224593    -0.03800
C443        C  0.13211824  0.39680178  0.35503036    -0.09100
C444        C  0.13220895  0.40697732  0.31458058    -0.16700
H445        H  0.12129793  0.46284660  0.10800604     0.11400
H446        H  0.12173265  0.44348164  0.17365059     0.10700
H447        H  0.16656935  0.45040239  0.19869898     0.10600
H448        H  0.16631377  0.46970669  0.13317424     0.11200
H449        H  0.16742459  0.41564429  0.31674155     0.11200
H450        H  0.16738743  0.39771199  0.38772026     0.11200
H451        H  0.12213573  0.39172800  0.36527987     0.11300
H452        H  0.12235488  0.40961682  0.29446986     0.10200
C453        C  0.11494927  0.23283838  0.03218425    -0.03700
C454        C  0.10070935  0.23699450  0.02359068    -0.09400
C455        C  0.08966579  0.22710239  0.02819388    -0.17100
C456        C  0.09265888  0.21294458  0.04185354     0.25100
C457        C  0.10666906  0.20889661  0.05353068    -0.18700
C458        C  0.11774100  0.21881401  0.04901978    -0.07700
C459        C  0.08148003  0.20245627  0.04057809    -0.14100
C460        C  0.07205647  0.19378598  0.03687378    -0.13800
C461        C  0.06074887  0.18352223  0.03177538     0.25000
C462        C  0.05733436  0.17779180  0.98217677    -0.19200
C463        C  0.04635941  0.16776658  0.97746080    -0.07700
C464        C  0.03870292  0.16334034  0.02242772    -0.03800
C465        C  0.04219938  0.16923500  0.07200781    -0.09100
C466        C  0.05312387  0.17925125  0.07657447    -0.16700
H467        H  0.09813480  0.24781364  0.01179646     0.11400
H468        H  0.07884989  0.23039803  0.01949601     0.10700
H469        H  0.10910343  0.19796345  0.06435039     0.10600
H470        H  0.12848294  0.21526949  0.05603696     0.11200
H471        H  0.06317525  0.18104373  0.94719767     0.11200
H472        H  0.04395414  0.16340946  0.93881467     0.11200
H473        H  0.03651164  0.16609228  0.10744243     0.11300
H474        H  0.05565076  0.18363034  0.11511421     0.10200
C475        C  0.14236156  0.33821959  0.62640723    -0.03700
C476        C  0.15491492  0.33408552  0.65269380    -0.09400
C477        C  0.15433850  0.32458315  0.69530914    -0.17100
C478        C  0.14123890  0.31910796  0.71202026     0.25100
C479        C  0.12868962  0.32321634  0.68637710    -0.18700
C480        C  0.12922944  0.33273339  0.64383986    -0.07700
C481        C  0.14068970  0.30912144  0.75504150    -0.14100
C482        C  0.14027260  0.30063610  0.79077884    -0.13800
C483        C  0.13986600  0.29049315  0.83332087     0.25000
C484        C  0.12726599  0.28320678  0.84471181    -0.19200
C485        C  0.12680236  0.27340475  0.88641692    -0.07700
C486        C  0.13903840  0.27070648  0.91738020    -0.03800
C487        C  0.15162607  0.27823796  0.90538712    -0.09100
C488        C  0.15204806  0.28799258  0.86363630    -0.16700
H489        H  0.16517256  0.33817066  0.64033590     0.11400
H490        H  0.16410597  0.32145169  0.71503630     0.10700
H491        H  0.11850174  0.31901665  0.69910390     0.10600
H492        H  0.11937654  0.33572135  0.62445975     0.11200
H493        H  0.11774958  0.28516934  0.82152070     0.11200
H494        H  0.11674203  0.26830549  0.89402898     0.11200
H495        H  0.16117551  0.27656339  0.92866795     0.11300
H496        H  0.16185580  0.29363449  0.85519631     0.10200
C497        C  0.14467003  0.33231918  0.40201764    -0.03700
C498        C  0.13197638  0.32621888  0.38292187    -0.09400
C499        C  0.13237818  0.31472932  0.34751839    -0.17100
C500        C  0.14545015  0.30912949  0.33070107     0.25100
C501        C  0.15812876  0.31506561  0.34973986    -0.18700
C502        C  0.15775675  0.32654577  0.38514657    -0.07700
C503        C  0.14587216  0.29780073  0.29195155    -0.14100
C504        C  0.14630850  0.28913050  0.25657695    -0.13800
C505        C  0.14691792  0.28025112  0.20991527     0.25000
C506        C  0.15550661  0.28446910  0.16747121    -0.19200
C507        C  0.15493475  0.27712120  0.11950181    -0.07700
C508        C  0.14572871  0.26541476  0.11306502    -0.03800
C509        C  0.13772117  0.26068294  0.15667438    -0.09100
C510        C  0.13825355  0.26813060  0.20484588    -0.16700
H511        H  0.12172352  0.33037044  0.39507958     0.11400
H512        H  0.12248427  0.31030907  0.33284796     0.10700
H513        H  0.16832017  0.31091293  0.33680525     0.10600
H514        H  0.16773120  0.33095545  0.39901415     0.11200
H515        H  0.16228562  0.29377540  0.17081250     0.11200
H516        H  0.16137009  0.28088436  0.08675818     0.11200
H517        H  0.13047699  0.25176749  0.15262047     0.11300
H518        H  0.13153132  0.26476074  0.23738189     0.10200
C519        C  0.14446519  0.52872130  0.12218466    -0.03700
C520        C  0.15746122  0.53402841  0.14177188    -0.09400
C521        C  0.15764684  0.54441602  0.18159643    -0.17100
C522        C  0.14486825  0.54966773  0.20253037     0.25100
C523        C  0.13189125  0.54445683  0.18330942    -0.18700
C524        C  0.13167608  0.53407614  0.14347848    -0.07700
C525        C  0.14504999  0.56036795  0.24370471    -0.14100
C526        C  0.14504570  0.56931171  0.27818182    -0.13800
C527        C  0.14483097  0.58002201  0.31931136     0.25000
C528        C  0.13191899  0.58405183  0.34267714    -0.19200
C529        C  0.13164221  0.59454661  0.38207008    -0.07700
C530        C  0.14430690  0.60117443  0.39884867    -0.03800
C531        C  0.15725273  0.59698149  0.37539659    -0.09100
C532        C  0.15749626  0.58650449  0.33590227    -0.16700
H533        H  0.16750209  0.53017171  0.12630008     0.11400
H534        H  0.16776688  0.54834729  0.19605989     0.10700
H535        H  0.12192103  0.54841880  0.19911817     0.10600
H536        H  0.12148625  0.53025276  0.12937362     0.11200
H537        H  0.12203922  0.57912363  0.33027594     0.11200
H538        H  0.12149707  0.59749576  0.39924992     0.11200
H539        H  0.16719116  0.60187661  0.38722716     0.11300
H540        H  0.16756442  0.58349822  0.31818235     0.10200
C541        C  0.14438455  0.60306152  0.62397618    -0.03700
C542        C  0.13175765  0.59632648  0.64044350    -0.09400
C543        C  0.13213790  0.58569349  0.67921458    -0.17100
C544        C  0.14510974  0.58169367  0.70204664     0.25100
C545        C  0.15773330  0.58831595  0.68600077    -0.18700
C546        C  0.15738987  0.59893701  0.64711716    -0.07700
C547        C  0.14539999  0.57087994  0.74229807    -0.14100
C548        C  0.14533557  0.56188588  0.77633571    -0.13800
C549        C  0.14501757  0.55120430  0.81706179     0.25000
C550        C  0.15773621  0.54626659  0.83931273    -0.19200
C551        C  0.15744029  0.53578354  0.87864952    -0.07700
C552        C  0.14438895  0.53012759  0.89620904    -0.03800
C553        C  0.13164832  0.53524481  0.87383446    -0.09100
C554        C  0.13197911  0.54572072  0.83442439    -0.16700
H555        H  0.12159124  0.59921304  0.62321625     0.11400
H556        H  0.12231417  0.58060788  0.69144231     0.10700
H557        H  0.16782511  0.58528021  0.70354779     0.10600
H558        H  0.16729135  0.60391018  0.63523011     0.11200
H559        H  0.16787683  0.55047956  0.82613438     0.11200
H560        H  0.16743300  0.53208316  0.89513880     0.11200
H561        H  0.12144220  0.53109252  0.88646949     0.11300
H562        H  0.12207722  0.54950985  0.81738706     0.10200
C563        C  0.04068625  0.83687278  0.00057256    -0.03700
C564        C  0.04793062  0.83437152  0.95268396    -0.09400
C565        C  0.05889909  0.82431360  0.95012991    -0.17100
C566        C  0.06275049  0.81654865  0.99524791     0.25100
C567        C  0.05561291  0.81893546  0.04313587    -0.18700
C568        C  0.04466925  0.82907677  0.04587893    -0.07700
C569        C  0.07400388  0.80612861  0.99221036    -0.14100
C570        C  0.08339744  0.79735833  0.99000933    -0.13800
C571        C  0.09451049  0.78675556  0.98991198     0.25000
C572        C  0.09255729  0.77396223  0.01745531    -0.19200
C573        C  0.10361411  0.76402429  0.02076906    -0.07700
C574        C  0.11691775  0.76676641  0.99695710    -0.03800
C575        C  0.11851019  0.77935929  0.96705343    -0.09100
C576        C  0.10741607  0.78933100  0.96390362    -0.16700
H577        H  0.04518829  0.84025829  0.91716131     0.11400
H578        H  0.06436007  0.82257811  0.91290723     0.10700
H579        H  0.05851183  0.81297019  0.07832986     0.10600
H580        H  0.03928276  0.83075062  0.08325761     0.11200
H581        H  0.08254601  0.77175479  0.03713879     0.11200
H582        H  0.10169226  0.75422566  0.04232596     0.11200
H583        H  0.12838234  0.78178000  0.94721903     0.11300
H584        H  0.10900066  0.79915832  0.94199880     0.10200
C585        C  0.14312956  0.72838911  0.09793854    -0.03700
C586        C  0.15392975  0.72818612  0.13682868    -0.09400
C587        C  0.15342605  0.71840953  0.17854757    -0.17100
C588        C  0.14220009  0.70870672  0.18224357     0.25100
C589        C  0.13134342  0.70885124  0.14450083    -0.18700
C590        C  0.13176832  0.71864571  0.10286623    -0.07700
C591        C  0.14185693  0.69861731  0.22490454    -0.14100
C592        C  0.14180849  0.69027202  0.26108885    -0.13800
C593        C  0.14200578  0.68044922  0.30460718     0.25000
C594        C  0.12922009  0.67534495  0.32568263    -0.19200
C595        C  0.12942948  0.66576105  0.36807762    -0.07700
C596        C  0.14246135  0.66119023  0.38976836    -0.03800
C597        C  0.15525555  0.66645417  0.36840255    -0.09100
C598        C  0.15501169  0.67602994  0.32603743    -0.16700
H599        H  0.16285309  0.73537381  0.13599702     0.11400
H600        H  0.16184950  0.71838465  0.20788638     0.10700
H601        H  0.12256851  0.70138677  0.14717948     0.10600
H602        H  0.12325624  0.71854527  0.07391443     0.11200
H603        H  0.11910335  0.67874892  0.30929348     0.11200
H604        H  0.11940728  0.66189211  0.38365411     0.11200
H605        H  0.16545735  0.66313453  0.38421492     0.11300
H606        H  0.16495868  0.67996428  0.30994089     0.10200
C607        C  0.14029244  0.73227204  0.90074821    -0.03700
C608        C  0.13138899  0.72036508  0.89382594    -0.09400
C609        C  0.13130494  0.71292170  0.84610076    -0.17100
C610        C  0.14010422  0.71723396  0.80443197     0.25100
C611        C  0.14856526  0.72948438  0.81004199    -0.18700
C612        C  0.14858789  0.73704985  0.85799835    -0.07700
C613        C  0.14098799  0.70837362  0.75789236    -0.14100
C614        C  0.14141031  0.69963105  0.72283104    -0.13800
C615        C  0.14169376  0.68819819  0.68460794     0.25000
C616        C  0.15464279  0.68362056  0.66304150    -0.19200
C617        C  0.15499287  0.67209787  0.62784915    -0.07700
C618        C  0.14237057  0.66496426  0.61365528    -0.03800
C619        C  0.12939475  0.66967849  0.63542724    -0.09100
C620        C  0.12907874  0.68118174  0.67072151    -0.16700
H621        H  0.12473827  0.71658871  0.92595523     0.11400
H622        H  0.12468442  0.70351354  0.84228638     0.10700
H623        H  0.15544245  0.73291881  0.77805294     0.10600
H624        H  0.15556894  0.74615702  0.86255079     0.11200
H625        H  0.16449233  0.68888967  0.67372324     0.11200
H626        H  0.16515386  0.66879203  0.61172518     0.11200
H627        H  0.11948564  0.66444473  0.62538841     0.11300
H628        H  0.11899767  0.68454348  0.68744386     0.10200
C629        C  0.40665763  0.13232179  0.39758329    -0.03700
C630        C  0.41178077  0.11940474  0.37645558    -0.09400
C631        C  0.42239736  0.11944165  0.33760249    -0.17100
C632        C  0.42805088  0.13236407  0.31934538     0.25100
C633        C  0.42307027  0.14526110  0.34024384    -0.18700
C634        C  0.41245043  0.14525578  0.37907190    -0.07700
C635        C  0.43885159  0.13239594  0.27883307    -0.14100
C636        C  0.44779063  0.13238610  0.24452319    -0.13800
C637        C  0.45835995  0.13227241  0.20318349     0.25000
C638        C  0.46280176  0.14508428  0.17986943    -0.19200
C639        C  0.47302003  0.14496114  0.13956714    -0.07700
C640        C  0.47891890  0.13199124  0.12195291    -0.03800
C641        C  0.47436559  0.11916910  0.14562502    -0.09100
C642        C  0.46416940  0.11932544  0.18596924    -0.16700
H643        H  0.40755320  0.10926520  0.38976356     0.11400
H644        H  0.42616144  0.10939107  0.32168370     0.10700
H645        H  0.42735955  0.15533029  0.32639601     0.10600
H646        H  0.40875709  0.15538390  0.39446018     0.11200
H647        H  0.45836686  0.15517117  0.19283150     0.11200
H648        H  0.47628038  0.15501610  0.12219525     0.11200
H649        H  0.47870493  0.10900786  0.13310682     0.11300
H650        H  0.46080857  0.10934142  0.20370411     0.10200
C651        C  0.40526014  0.13179596  0.62244988    -0.03700
C652        C  0.41017378  0.14465005  0.64463266    -0.09400
C653        C  0.42080181  0.14452340  0.68338394    -0.17100
C654        C  0.42667756  0.13157458  0.70044063     0.25100
C655        C  0.42185884  0.11872998  0.67870012    -0.18700
C656        C  0.41121170  0.11882341  0.63997729    -0.07700
C657        C  0.43761157  0.13148066  0.74035829    -0.14100
C658        C  0.44670291  0.13146132  0.77405992    -0.13800
C659        C  0.45745828  0.13146401  0.81464486     0.25000
C660        C  0.46227612  0.11855617  0.83617290    -0.19200
C661        C  0.47266359  0.11854366  0.87584175    -0.07700
C662        C  0.47836502  0.13147181  0.89454045    -0.03800
C663        C  0.47344573  0.14439707  0.87260983    -0.09100
C664        C  0.46306497  0.14437713  0.83292048    -0.16700
H665        H  0.40582723  0.15481664  0.63202725     0.11400
H666        H  0.42444689  0.15452760  0.69999130     0.10700
H667        H  0.42633645  0.10864354  0.69164871     0.10600
H668        H  0.40769801  0.10875057  0.62362320     0.11200
H669        H  0.45799709  0.10849870  0.82232492     0.11200
H670        H  0.47622033  0.10841389  0.89183207     0.11200
H671        H  0.47762571  0.15453065  0.88602626     0.11300
H672        H  0.45940420  0.15443241  0.81653252     0.10200
C673        C  0.17387339  0.03092904  0.00085622    -0.03700
C674        C  0.17825705  0.03602391  0.95094618    -0.09400
C675        C  0.18848755  0.04677552  0.94689426    -0.17100
C676        C  0.19452190  0.05260681  0.99255236     0.25100
C677        C  0.19025341  0.04763845  0.04245331    -0.18700
C678        C  0.17998031  0.03686648  0.04663849    -0.07700
C679        C  0.20503131  0.06372514  0.98798822    -0.14100
C680        C  0.21375129  0.07312191  0.98443223    -0.13800
C681        C  0.22404953  0.08449301  0.98296025     0.25000
C682        C  0.23727344  0.08268094  0.00745960    -0.19200
C683        C  0.24671035  0.09414642  0.01116942    -0.07700
C684        C  0.24302087  0.10767697  0.99076419    -0.03800
C685        C  0.23011896  0.10909972  0.96298889    -0.09100
C686        C  0.22063115  0.09762177  0.95958400    -0.16700
H687        H  0.17375690  0.03173457  0.91486753     0.11400
H688        H  0.19168300  0.05054714  0.90809481     0.10700
H689        H  0.19485009  0.05209962  0.07810146     0.10600
H690        H  0.17682762  0.03320231  0.08559209     0.11200
H691        H  0.24013310  0.07251414  0.02506098     0.11200
H692        H  0.25678109  0.09244951  0.03105040     0.11200
H693        H  0.22704109  0.11915828  0.94562856     0.11300
H694        H  0.21047252  0.09910669  0.93998034     0.10200
C695        C  0.16380206  0.22919299  0.00446774    -0.03700
C696        C  0.16160909  0.21619205  0.03116832    -0.09400
C697        C  0.17172149  0.20520618  0.02807496    -0.17100
C698        C  0.18425528  0.20716159  0.99893004     0.25100
C699        C  0.18683180  0.22027297  0.97431144    -0.18700
C700        C  0.17674560  0.23120184  0.97717420    -0.07700
C701        C  0.19458899  0.19584989  0.99426393    -0.14100
C702        C  0.20379752  0.18692671  0.99008401    -0.13800
C703        C  0.21544361  0.17692407  0.98749107     0.25000
C704        C  0.22914791  0.18139688  0.00130468    -0.19200
C705        C  0.24030351  0.17154724  0.00367653    -0.07700
C706        C  0.23791967  0.15705526  0.99224758    -0.03800
C707        C  0.22429286  0.15276168  0.97593721    -0.09100
C708        C  0.21308603  0.16263854  0.97375817    -0.16700
H709        H  0.15200528  0.21431146  0.05334616     0.11400
H710        H  0.16969731  0.19515306  0.04796420     0.10700
H711        H  0.19660208  0.22201911  0.95243764     0.10600
H712        H  0.17911540  0.24122361  0.95771877     0.11200
H713        H  0.23113288  0.19243104  0.01172425     0.11200
H714        H  0.25074386  0.17518216  0.01585050     0.11200
H715        H  0.22209924  0.14170030  0.96763881     0.11300
H716        H  0.20251728  0.15904947  0.96297733     0.10200
C717        C  0.27793867  0.13503153  0.10258993    -0.03700
C718        C  0.27700866  0.14525347  0.14346235    -0.09400
C719        C  0.28641975  0.14480817  0.18634074    -0.17100
C720        C  0.29686796  0.13419784  0.18926457     0.25100
C721        C  0.29776355  0.12386503  0.14965142    -0.18700
C722        C  0.28837927  0.12425436  0.10684395    -0.07700
C723        C  0.30688170  0.13405706  0.23227367    -0.14100
C724        C  0.31552593  0.13388175  0.26749093    -0.13800
C725        C  0.32597795  0.13359896  0.30903491     0.25000
C726        C  0.33035645  0.12055699  0.33071440    -0.19200
C727        C  0.34048326  0.12026043  0.37125411    -0.07700
C728        C  0.34634418  0.13303663  0.39065528    -0.03800
C729        C  0.34191579  0.14609415  0.36837977    -0.09100
C730        C  0.33180229  0.14635707  0.32779925    -0.16700
H731        H  0.26926147  0.15373172  0.14305142     0.11400
H732        H  0.28563502  0.15284692  0.21698743     0.10700
H733        H  0.30580801  0.11557689  0.15156423     0.10600
H734        H  0.28937595  0.11619689  0.07636627     0.11200
H735        H  0.32592596  0.11061892  0.31634791     0.11200
H736        H  0.34367704  0.11003783  0.38748978     0.11200
H737        H  0.34625378  0.15611231  0.38228427     0.11300
H738        H  0.32850521  0.15650738  0.31115207     0.10200
C739        C  0.27641882  0.13622511  0.90422493    -0.03700
C740        C  0.27215079  0.12711821  0.86303165    -0.09400
C741        C  0.28013619  0.12636333  0.81611611    -0.17100
C742        C  0.29235922  0.13480068  0.80987983     0.25100
C743        C  0.29624508  0.14433219  0.84983645    -0.18700
C744        C  0.28834464  0.14506905  0.89651902    -0.07700
C745        C  0.30144627  0.13335802  0.76411799    -0.14100
C746        C  0.31013694  0.13271607  0.72893070    -0.13800
C747        C  0.32131742  0.13256984  0.68971200     0.25000
C748        C  0.32757067  0.14540629  0.67340975    -0.19200
C749        C  0.33871212  0.14534015  0.63663619    -0.07700
C750        C  0.34381755  0.13240006  0.61565593    -0.03800
C751        C  0.33747603  0.11953705  0.63232597    -0.09100
C752        C  0.32631193  0.11963497  0.66909316    -0.16700
H753        H  0.26307843  0.12012502  0.86807172     0.11400
H754        H  0.27701243  0.11893932  0.78543358     0.10700
H755        H  0.30561158  0.15097418  0.84545092     0.10600
H756        H  0.29175265  0.15237619  0.92715224     0.11200
H757        H  0.32387219  0.15548317  0.68931429     0.11200
H758        H  0.34334330  0.15542970  0.62475600     0.11200
H759        H  0.34112750  0.10939153  0.61695699     0.11300
H760        H  0.32162620  0.10961923  0.68160925     0.10200
C761        C  0.61120063  0.13236783  0.61842685    -0.03700
C762        C  0.60513120  0.11925732  0.63371070    -0.09400
C763        C  0.59464493  0.11876008  0.67297058    -0.17100
C764        C  0.59011088  0.13133178  0.69760888     0.25100
C765        C  0.59611069  0.14441746  0.68283009    -0.18700
C766        C  0.60657141  0.14495030  0.64346193    -0.07700
C767        C  0.57928925  0.13082709  0.73794786    -0.14100
C768        C  0.57023023  0.13061426  0.77177920    -0.13800
C769        C  0.55946733  0.13069712  0.81237161     0.25000
C770        C  0.55410879  0.14368103  0.83111250    -0.19200
C771        C  0.54376929  0.14384095  0.87091939    -0.07700
C772        C  0.53863449  0.13098533  0.89256753    -0.03800
C773        C  0.54404152  0.11797259  0.87327449    -0.09100
C774        C  0.55439506  0.11784449  0.83345764    -0.16700
H775        H  0.60845238  0.10937683  0.61525569     0.11400
H776        H  0.59007715  0.10857147  0.68409706     0.10700
H777        H  0.59269162  0.15421588  0.70169795     0.10600
H778        H  0.61106501  0.15519997  0.63280271     0.11200
H779        H  0.55795304  0.15369378  0.81504883     0.11200
H780        H  0.53981837  0.15403555  0.88475651     0.11200
H781        H  0.54030822  0.10788908  0.88901062     0.11300
H782        H  0.55846480  0.10772844  0.81922896     0.10200
C783        C  0.61201516  0.13294809  0.39280266    -0.03700
C784        C  0.60839860  0.12006641  0.36762836    -0.09400
C785        C  0.59782828  0.11979287  0.32866729    -0.17100
C786        C  0.59069950  0.13235722  0.31448861     0.25100
C787        C  0.59419157  0.14521839  0.33937431    -0.18700
C788        C  0.60479561  0.14553163  0.37822787    -0.07700
C789        C  0.57985562  0.13206148  0.27424375    -0.14100
C790        C  0.57083033  0.13186325  0.24030211    -0.13800
C791        C  0.56011287  0.13175746  0.19956926     0.25000
C792        C  0.55376050  0.14455404  0.18329911    -0.19200
C793        C  0.54338839  0.14450207  0.14359111    -0.07700
C794        C  0.53919553  0.13161573  0.11970509    -0.03800
C795        C  0.54563950  0.11879721  0.13637592    -0.09100
C796        C  0.55604611  0.11888530  0.17599916    -0.16700
H797        H  0.61375855  0.11019990  0.37790658     0.11400
H798        H  0.59521531  0.10978141  0.30961539     0.10700
H799        H  0.58873065  0.15500728  0.32870616     0.10600
H800        H  0.60728397  0.15560483  0.39700399     0.11200
H801        H  0.55682922  0.15457871  0.20128998     0.11200
H802        H  0.53861101  0.15454510  0.13180314     0.11200
H803        H  0.54266686  0.10870368  0.11875940     0.11300
H804        H  0.56090929  0.10891740  0.18826625     0.10200
C805        C  0.84375355  0.02933767  0.01727877    -0.03700
C806        C  0.83914520  0.03391307  0.06752449    -0.09400
C807        C  0.82920969  0.04493110  0.07233575    -0.17100
C808        C  0.82369743  0.05154262  0.02711209     0.25100
C809        C  0.82805201  0.04697518  0.97686031    -0.18700
C810        C  0.83803189  0.03593436  0.97191317    -0.07700
C811        C  0.81363850  0.06305100  0.03252350    -0.14100
C812        C  0.80513591  0.07263220  0.03684044    -0.13800
C813        C  0.79471035  0.08388715  0.03904246     0.25000
C814        C  0.78052576  0.08093367  0.02641297    -0.19200
C815        C  0.77063306  0.09202632  0.02269500    -0.07700
C816        C  0.77481402  0.10626000  0.03125938    -0.03800
C817        C  0.78889248  0.10904601  0.04680769    -0.09100
C818        C  0.79881095  0.09791421  0.05050009    -0.16700
H819        H  0.84332228  0.02908360  0.10329690     0.11400
H820        H  0.82589589  0.04835428  0.11139146     0.10700
H821        H  0.82381393  0.05201126  0.94155098     0.10600
H822        H  0.84135242  0.03266399  0.93271928     0.11200
H823        H  0.77720820  0.07011436  0.01775074     0.11200
H824        H  0.75979866  0.08952729  0.01135473     0.11200
H825        H  0.79246418  0.11983385  0.05300400     0.11300
H826        H  0.80977866  0.10031847  0.06032879     0.10200
C827        C  0.67143011  0.13417950  0.62231520    -0.03700
C828        C  0.67684457  0.14718697  0.64140180    -0.09400
C829        C  0.68704673  0.14728731  0.68164674    -0.17100
C830        C  0.69192432  0.13441334  0.70318339     0.25100
C831        C  0.68663142  0.12143615  0.68442678    -0.18700
C832        C  0.67645156  0.12130166  0.64419976    -0.07700
C833        C  0.70218882  0.13445871  0.74516070    -0.14100
C834        C  0.71054550  0.13410026  0.78118134    -0.13800
C835        C  0.72016748  0.13330350  0.82511776     0.25000
C836        C  0.72803576  0.12086357  0.83400392    -0.19200
C837        C  0.73711085  0.11986764  0.87765473    -0.07700
C838        C  0.73845146  0.13139458  0.91319665    -0.03800
C839        C  0.73046089  0.14388052  0.90335255    -0.09100
C840        C  0.72139940  0.14481959  0.85975534    -0.16700
H841        H  0.67319703  0.15727481  0.62532487     0.11400
H842        H  0.69108372  0.15738602  0.69607759     0.10700
H843        H  0.69033833  0.11142161  0.70102486     0.10600
H844        H  0.67248702  0.11111727  0.63041224     0.11200
H845        H  0.72707593  0.11186724  0.80734643     0.11200
H846        H  0.74282468  0.10999298  0.88275890     0.11200
H847        H  0.73121094  0.15292920  0.92983603     0.11300
H848        H  0.71529731  0.15449198  0.85326466     0.10200
C849        C  0.74077772  0.13587407  0.11058493    -0.03700
C850        C  0.72839856  0.14425897  0.11558011    -0.09400
C851        C  0.72069508  0.14440147  0.16278089    -0.17100
C852        C  0.72525045  0.13626625  0.20603726     0.25100
C853        C  0.73791243  0.12835893  0.20239040    -0.18700
C854        C  0.74568464  0.12820524  0.15489544    -0.07700
C855        C  0.71637373  0.13558197  0.25258805    -0.14100
C856        C  0.70775709  0.13528402  0.28807126    -0.13800
C857        C  0.69654603  0.13511044  0.32712530     0.25000
C858        C  0.69233392  0.12222254  0.35042456    -0.19200
C859        C  0.68101131  0.12195253  0.38641108    -0.07700
C860        C  0.67372483  0.13459640  0.39968734    -0.03800
C861        C  0.67809493  0.14751946  0.37632540    -0.09100
C862        C  0.68939610  0.14775247  0.34019453    -0.16700
H863        H  0.72447873  0.15049901  0.08249733     0.11400
H864        H  0.71097271  0.15061369  0.16510218     0.10700
H865        H  0.74154385  0.12200028  0.23563627     0.10600
H866        H  0.75510217  0.12157138  0.15206726     0.11200
H867        H  0.69772389  0.11235560  0.34044831     0.11200
H868        H  0.67797731  0.11183442  0.40385063     0.11200
H869        H  0.67273067  0.15743667  0.38568627     0.11300
H870        H  0.69249217  0.15778415  0.32216602     0.10200
C871        C  0.40668168  0.86807155  0.61312937    -0.03700
C872        C  0.41156649  0.88100533  0.63483275    -0.09400
C873        C  0.42198721  0.88101411  0.67461468    -0.17100
C874        C  0.42770307  0.86811908  0.69326024     0.25100
C875        C  0.42298597  0.85522278  0.67159253    -0.18700
C876        C  0.41257073  0.85518365  0.63192409    -0.07700
C877        C  0.43834242  0.86806470  0.73469876    -0.14100
C878        C  0.44724935  0.86785294  0.76932990    -0.13800
C879        C  0.45794529  0.86762029  0.81056271     0.25000
C880        C  0.46347348  0.85462005  0.82893490    -0.19200
C881        C  0.47388562  0.85441942  0.86871223    -0.07700
C882        C  0.47895284  0.86724528  0.89075099    -0.03800
C883        C  0.47331755  0.88024972  0.87202157    -0.09100
C884        C  0.46290518  0.88042027  0.83230635    -0.16700
H885        H  0.40723888  0.89111076  0.62148508     0.11400
H886        H  0.42553341  0.89107878  0.69099735     0.10700
H887        H  0.42730910  0.84516757  0.68556225     0.10600
H888        H  0.40906489  0.84503067  0.61624392     0.11200
H889        H  0.45974158  0.84462853  0.81250198     0.11200
H890        H  0.47795746  0.84422007  0.88218952     0.11200
H891        H  0.47692813  0.89031739  0.88812058     0.11300
H892        H  0.45872952  0.89055605  0.81852617     0.10200
C893        C  0.40281752  0.86669098  0.38557625    -0.03700
C894        C  0.40712630  0.85371571  0.36254978    -0.09400
C895        C  0.41737034  0.85355500  0.32229421    -0.17100
C896        C  0.42346251  0.86633534  0.30456422     0.25100
C897        C  0.41914297  0.87929782  0.32686915    -0.18700
C898        C  0.40888357  0.87949217  0.36699291    -0.07700
C899        C  0.43430953  0.86616209  0.26417150    -0.14100
C900        C  0.44354895  0.86616383  0.23094182    -0.13800
C901        C  0.45471310  0.86628364  0.19175500     0.25000
C902        C  0.46173690  0.87903475  0.17941439    -0.19200
C903        C  0.47262018  0.87916593  0.14159406    -0.07700
C904        C  0.47668733  0.86650547  0.11572784    -0.03800
C905        C  0.46957090  0.85373636  0.12843121    -0.09100
C906        C  0.45864326  0.85364619  0.16610118    -0.16700
H907        H  0.40265264  0.84368117  0.37583506     0.11400
H908        H  0.42062173  0.84345327  0.30531291     0.10700
H909        H  0.42378109  0.88925845  0.31350894     0.10600
H910        H  0.40583055  0.88966221  0.38385849     0.11200
H911        H  0.45880931  0.88888112  0.19905632     0.11200
H912        H  0.47790663  0.88916383  0.13287634     0.11200
H913        H  0.47241197  0.84382048  0.10915477     0.11300
H914        H  0.45328647  0.84371041  0.17530992     0.10200
C915        C  0.24191542  0.89117265  0.02536762    -0.03700
C916        C  0.24628192  0.90525689  0.01453771    -0.09400
C917        C  0.23656900  0.91657056  0.01694495    -0.17100
C918        C  0.22233429  0.91401674  0.03023500     0.25100
C919        C  0.21802900  0.90013666  0.04338320    -0.18700
C920        C  0.22777859  0.88880618  0.04125778    -0.07700
C921        C  0.21208836  0.92552652  0.02794344    -0.14100
C922        C  0.20362248  0.93522085  0.02436229    -0.13800
C923        C  0.19353425  0.94684040  0.02033256     0.25000
C924        C  0.18806104  0.95101325  0.97099007    -0.19200
C925        C  0.17813927  0.96219031  0.96747151    -0.07700
C926        C  0.17354197  0.96933285  0.01336387    -0.03800
C927        C  0.17921011  0.96510569  0.06265081    -0.09100
C928        C  0.18910807  0.95397564  0.06603898    -0.16700
H929        H  0.25716144  0.90748811  0.00304169     0.11400
H930        H  0.24008739  0.92725912  0.00706103     0.10700
H931        H  0.20705117  0.89800371  0.05388437     0.10600
H932        H  0.22406085  0.87816173  0.04962631     0.11200
H933        H  0.19140937  0.94558594  0.93526176     0.11200
H934        H  0.17398804  0.96514847  0.92897874     0.11200
H935        H  0.17594754  0.97035363  0.09882942     0.11300
H936        H  0.19325789  0.95088985  0.10443287     0.10200
C937        C  0.23875225  0.84146305  0.01417884    -0.03700
C938        C  0.24122877  0.82783045  0.99243708    -0.09400
C939        C  0.23043668  0.81763183  0.99099289    -0.17100
C940        C  0.21702922  0.82076725  0.01183413     0.25100
C941        C  0.21466629  0.83393712  0.03651618    -0.18700
C942        C  0.22551122  0.84419671  0.03803099    -0.07700
C943        C  0.20571244  0.81053666  0.00624086    -0.14100
C944        C  0.19673199  0.80152192  0.99974915    -0.13800
C945        C  0.18649592  0.79024325  0.99319133     0.25000
C946        C  0.17224854  0.79339716  0.98158810    -0.19200
C947        C  0.16210607  0.78246261  0.98029720    -0.07700
C948        C  0.16611702  0.76830167  0.99083845    -0.03800
C949        C  0.18057215  0.76515803  0.99979606    -0.09100
C950        C  0.19068516  0.77606168  0.00099517    -0.16700
H951        H  0.25146838  0.82506778  0.97566591     0.11400
H952        H  0.23247864  0.80738755  0.97262650     0.10700
H953        H  0.20435728  0.83640467  0.05344054     0.10600
H954        H  0.22330563  0.85437536  0.05607107     0.11200
H955        H  0.16889286  0.80434654  0.97545310     0.11200
H956        H  0.15106462  0.78521405  0.97434453     0.11200
H957        H  0.18395485  0.75430504  0.00777867     0.11300
H958        H  0.20169076  0.77347840  0.00969726     0.10200
C959        C  0.27999561  0.86631806  0.91971654    -0.03700
C960        C  0.27975153  0.85688617  0.87615345    -0.09400
C961        C  0.28975455  0.85810095  0.83555657    -0.17100
C962        C  0.30017751  0.86869313  0.83740941     0.25100
C963        C  0.30052410  0.87821765  0.87987927    -0.18700
C964        C  0.29050032  0.87706865  0.92055964    -0.07700
C965        C  0.31051470  0.86961976  0.79563994    -0.14100
C966        C  0.31889147  0.86974067  0.75956258    -0.13800
C967        C  0.32858828  0.86933655  0.71560828     0.25000
C968        C  0.33305304  0.88202706  0.69159596    -0.19200
C969        C  0.34232962  0.88160168  0.64838614    -0.07700
C970        C  0.34724674  0.86844794  0.62862425    -0.03800
C971        C  0.34268766  0.85574564  0.65307657    -0.09100
C972        C  0.33341256  0.85620401  0.69629459    -0.16700
H973        H  0.27203326  0.84848512  0.87228121     0.11400
H974        H  0.28938632  0.85069721  0.80267274     0.10700
H975        H  0.30855274  0.88649614  0.88165546     0.10600
H976        H  0.29099112  0.88454028  0.95317449     0.11200
H977        H  0.32934821  0.89224478  0.70619954     0.11200
H978        H  0.34564588  0.89157322  0.63050565     0.11200
H979        H  0.34628975  0.84545699  0.63889014     0.11300
H980        H  0.32998347  0.84631572  0.71458376     0.10200
C981        C  0.27430218  0.86207597  0.11659911    -0.03700
C982        C  0.28528447  0.85223462  0.12688855    -0.09400
C983        C  0.29261460  0.85249030  0.17498348    -0.17100
C984        C  0.28913401  0.86260856  0.21353746     0.25100
C985        C  0.27773460  0.87202424  0.20465964    -0.18700
C986        C  0.27027301  0.87169280  0.15647919    -0.07700
C987        C  0.29806113  0.86389246  0.25989307    -0.14100
C988        C  0.30673265  0.86468703  0.29517234    -0.13800
C989        C  0.31806962  0.86530028  0.33383071     0.25000
C990        C  0.32394943  0.87844718  0.34850261    -0.19200
C991        C  0.33550140  0.87896660  0.38359501    -0.07700
C992        C  0.34139257  0.86631584  0.40443355    -0.03800
C993        C  0.33530813  0.85316301  0.38982815    -0.09100
C994        C  0.32376094  0.85267436  0.35480073    -0.16700
H995        H  0.28851532  0.84464545  0.09689746     0.11400
H996        H  0.30137017  0.84513323  0.18128021     0.10700
H997        H  0.27494883  0.87993349  0.23412047     0.10600
H998        H  0.26192925  0.87944895  0.14923974     0.11200
H999        H  0.31971155  0.88829811  0.33234501     0.11200
H1000       H  0.33988527  0.88926642  0.39405000     0.11200
H1001       H  0.33952292  0.84321763  0.40518930     0.11300
H1002       H  0.31938060  0.84242311  0.34358531     0.10200
C1003       C  0.53729527  0.86662771  0.12636389    -0.03700
C1004       C  0.54393184  0.85383146  0.14225906    -0.09400
C1005       C  0.55410396  0.85381635  0.18283225    -0.17100
C1006       C  0.55776277  0.86655791  0.20832533     0.25100
C1007       C  0.55112123  0.87931918  0.19313082    -0.18700
C1008       C  0.54098588  0.87937132  0.15243742    -0.07700
C1009       C  0.56845695  0.86655984  0.24948809    -0.14100
C1010       C  0.57754859  0.86649676  0.28340564    -0.13800
C1011       C  0.58854644  0.86628621  0.32344223     0.25000
C1012       C  0.59375739  0.87907750  0.34448336    -0.19200
C1013       C  0.60451629  0.87886203  0.38292274    -0.07700
C1014       C  0.61021853  0.86582166  0.40100823    -0.03800
C1015       C  0.60488289  0.85302279  0.37967848    -0.09100
C1016       C  0.59414937  0.85326869  0.34119458    -0.16700
H1017       H  0.54135912  0.84384038  0.12304859     0.11400
H1018       H  0.55916238  0.84386564  0.19415413     0.10700
H1019       H  0.55383718  0.88925424  0.21252337     0.10600
H1020       H  0.53605197  0.88939841  0.14138352     0.11200
H1021       H  0.58953336  0.88922883  0.33107435     0.11200
H1022       H  0.60837395  0.88890787  0.39840821     0.11200
H1023       H  0.60904806  0.84280084  0.39250860     0.11300
H1024       H  0.59024071  0.84329226  0.32520372     0.10200
C1025       C  0.61343088  0.86660640  0.62780968    -0.03700
C1026       C  0.60829601  0.87979060  0.64655955    -0.09400
C1027       C  0.59812996  0.88027783  0.68708160    -0.17100
C1028       C  0.59296743  0.86761720  0.70951085     0.25100
C1029       C  0.59806096  0.85446624  0.69128609    -0.18700
C1030       C  0.60820399  0.85394854  0.65076400    -0.07700
C1031       C  0.58233022  0.86805811  0.75072493    -0.14100
C1032       C  0.57327118  0.86810325  0.78468658    -0.13800
C1033       C  0.56224023  0.86784692  0.82447437     0.25000
C1034       C  0.55529214  0.85503661  0.83664564    -0.19200
C1035       C  0.54439866  0.85478457  0.87445836    -0.07700
C1036       C  0.54023200  0.86738412  0.90049930    -0.03800
C1037       C  0.54734143  0.88019677  0.88824409    -0.09100
C1038       C  0.55827820  0.88040845  0.85058069    -0.16700
H1039       H  0.61207057  0.88973289  0.62975423     0.11400
H1040       H  0.59426239  0.89052641  0.70077009     0.10700
H1041       H  0.59414564  0.84459162  0.70826344     0.10600
H1042       H  0.61191821  0.84362510  0.63734400     0.11200
H1043       H  0.55824903  0.84524219  0.81671321     0.11200
H1044       H  0.53914774  0.84475085  0.88289590     0.11200
H1045       H  0.54445067  0.89006856  0.90772684     0.11300
H1046       H  0.56357638  0.89038953  0.84158234     0.10200
C1047       C  0.77519859  0.89127893  0.98728437    -0.03700
C1048       C  0.78922797  0.88830076  0.97124644    -0.09400
C1049       C  0.79940567  0.89922492  0.96894293    -0.17100
C1050       C  0.79566695  0.91325090  0.98237406     0.25100
C1051       C  0.78158248  0.91638162  0.99618071    -0.18700
C1052       C  0.77142110  0.90550792  0.99848941    -0.07700
C1053       C  0.80631459  0.92434881  0.98427552    -0.14100
C1054       C  0.81499116  0.93382306  0.98762807    -0.13800
C1055       C  0.82518863  0.94529132  0.99186781     0.25000
C1056       C  0.82955100  0.95264651  0.94643603    -0.19200
C1057       C  0.83941784  0.96376674  0.95025074    -0.07700
C1058       C  0.84508311  0.96775039  0.99969970    -0.03800
C1059       C  0.84060008  0.96033577  0.04525042    -0.09100
C1060       C  0.83072705  0.94917983  0.04130473    -0.16700
H1061       H  0.79252179  0.87745069  0.96302977     0.11400
H1062       H  0.81027435  0.89665733  0.95816948     0.10700
H1063       H  0.77851592  0.92718744  0.00635325     0.10600
H1064       H  0.76065840  0.90819126  0.01020964     0.11200
H1065       H  0.82533811  0.94977361  0.90797516     0.11200
H1066       H  0.84261283  0.96923435  0.91436361     0.11200
H1067       H  0.84476306  0.96310189  0.08386309     0.11300
H1068       H  0.82742474  0.94358192  0.07680624     0.10200
C1069       C  0.67019115  0.86334071  0.38840253    -0.03700
C1070       C  0.67510444  0.87598889  0.36448462    -0.09400
C1071       C  0.68469551  0.87543397  0.32224433    -0.17100
C1072       C  0.68952049  0.86225828  0.30336049     0.25100
C1073       C  0.68471308  0.84961264  0.32684714    -0.18700
C1074       C  0.67510083  0.85013565  0.36908741    -0.07700
C1075       C  0.69946365  0.86178977  0.26009684    -0.14100
C1076       C  0.70786873  0.86195985  0.22406221    -0.13800
C1077       C  0.71795428  0.86292141  0.18137676     0.25000
C1078       C  0.72098058  0.85100098  0.15017432    -0.19200
C1079       C  0.73065489  0.85210630  0.10834140    -0.07700
C1080       C  0.73758630  0.86512519  0.09715286    -0.03800
C1081       C  0.73432727  0.87707223  0.12890497    -0.09100
C1082       C  0.72463004  0.87592690  0.17062247    -0.16700
H1083       H  0.67152198  0.88632100  0.37830022     0.11400
H1084       H  0.68835912  0.88528848  0.30433885     0.10700
H1085       H  0.68839448  0.83935618  0.31254542     0.10600
H1086       H  0.67152781  0.84020640  0.38659862     0.11200
H1087       H  0.71580944  0.84087987  0.15795085     0.11200
H1088       H  0.73272524  0.84275938  0.08436187     0.11200
H1089       H  0.73887866  0.88744152  0.12178065     0.11300
H1090       H  0.72225127  0.88525869  0.19432685     0.10200
C1091       C  0.74256950  0.86088936  0.90059085    -0.03700
C1092       C  0.74662003  0.86988890  0.85864673    -0.09400
C1093       C  0.73881144  0.86997191  0.81116004    -0.17100
C1094       C  0.72700056  0.86094816  0.80504466     0.25100
C1095       C  0.72347158  0.85140953  0.84562902    -0.18700
C1096       C  0.73118319  0.85135982  0.89291367    -0.07700
C1097       C  0.71780754  0.86200578  0.75923158    -0.14100
C1098       C  0.70902208  0.86262289  0.72423200    -0.13800
C1099       C  0.69768855  0.86306425  0.68544210     0.25000
C1100       C  0.69094029  0.85043006  0.66984055    -0.19200
C1101       C  0.67956327  0.85084501  0.63399601    -0.07700
C1102       C  0.67469594  0.86393704  0.61322928    -0.03800
C1103       C  0.68158575  0.87658294  0.62895235    -0.09100
C1104       C  0.69298117  0.87613669  0.66478210    -0.16700
H1105       H  0.75525498  0.87741334  0.86370479     0.11400
H1106       H  0.74166200  0.87742004  0.78007168     0.10700
H1107       H  0.71442243  0.84433514  0.84147495     0.10600
H1108       H  0.72791834  0.84419664  0.92435257     0.11200
H1109       H  0.69440411  0.84024562  0.68570295     0.11200
H1110       H  0.67453427  0.84090585  0.62279025     0.11200
H1111       H  0.67815310  0.88683637  0.61369692     0.11300
H1112       H  0.69804444  0.88600619  0.67668430     0.10200
C1113       C  0.87408890  0.39770314  0.39979673    -0.03700
C1114       C  0.88686336  0.40431348  0.38405534    -0.09400
C1115       C  0.88681545  0.41494558  0.34497803    -0.17100
C1116       C  0.87402739  0.41910562  0.32090126     0.25100
C1117       C  0.86126355  0.41260802  0.33634882    -0.18700
C1118       C  0.86127623  0.40200961  0.37553619    -0.07700
C1119       C  0.87401152  0.42993975  0.28010416    -0.14100
C1120       C  0.87396256  0.43891470  0.24563336    -0.13800
C1121       C  0.87383989  0.44953765  0.20408023     0.25000
C1122       C  0.86099970  0.45344897  0.17983601    -0.19200
C1123       C  0.86085796  0.46369574  0.13938598    -0.07700
C1124       C  0.87358924  0.47017383  0.12241608    -0.03800
C1125       C  0.88645015  0.46616064  0.14700179    -0.09100
C1126       C  0.88655768  0.45593718  0.18755382    -0.16700
H1127       H  0.89690598  0.40126989  0.40190092     0.11400
H1128       H  0.89676873  0.41988115  0.33339961     0.10700
H1129       H  0.85129497  0.41570643  0.31800249     0.10600
H1130       H  0.85126143  0.39711695  0.38652572     0.11200
H1131       H  0.85108343  0.44857389  0.19218949     0.11200
H1132       H  0.85077699  0.46651562  0.12134043     0.11200
H1133       H  0.89643392  0.47095343  0.13505636     0.11300
H1134       H  0.89656933  0.45301256  0.20596474     0.10200
C1135       C  0.87430760  0.39529712  0.62653192    -0.03700
C1136       C  0.88723248  0.40109767  0.64471948    -0.09400
C1137       C  0.88729556  0.41155895  0.68413332    -0.17100
C1138       C  0.87446815  0.41634988  0.70600757     0.25100
C1139       C  0.86156920  0.41053023  0.68865303    -0.18700
C1140       C  0.86147341  0.40007997  0.64917256    -0.07700
C1141       C  0.87452625  0.42738872  0.74562160    -0.14100
C1142       C  0.87450143  0.43673252  0.77841789    -0.13800
C1143       C  0.87431448  0.44788583  0.81758853     0.25000
C1144       C  0.86142550  0.45207557  0.84061779    -0.19200
C1145       C  0.86121063  0.46278930  0.87906824    -0.07700
C1146       C  0.87391835  0.46944664  0.89517625    -0.03800
C1147       C  0.88682182  0.46521643  0.87156996    -0.09100
C1148       C  0.88700149  0.45451832  0.83298937    -0.16700
H1149       H  0.89730019  0.39765738  0.62817370     0.11400
H1150       H  0.89734459  0.41598172  0.69726932     0.10700
H1151       H  0.85157369  0.41414921  0.70534723     0.10600
H1152       H  0.85134985  0.39581751  0.63618617     0.11200
H1153       H  0.85153794  0.44702880  0.82897359     0.11200
H1154       H  0.85109848  0.46578751  0.89640111     0.11200
H1155       H  0.89677799  0.47016198  0.88289933     0.11300
H1156       H  0.89704029  0.45138109  0.81534552     0.10200
C1157       C  0.97754494  0.16383685  0.00426499    -0.03700
C1158       C  0.97211679  0.17065116  0.04955846    -0.09400
C1159       C  0.96133796  0.18093879  0.04493160    -0.17100
C1160       C  0.95581261  0.18451771  0.99507968     0.25100
C1161       C  0.96116965  0.17781371  0.94984558    -0.18700
C1162       C  0.97195778  0.16757995  0.95433403    -0.07700
C1163       C  0.94458202  0.19496965  0.99033384    -0.14100
C1164       C  0.93510703  0.20366500  0.98729639    -0.13800
C1165       C  0.92373113  0.21402866  0.98653378     0.25000
C1166       C  0.91071890  0.21086462  0.96224114    -0.19200
C1167       C  0.89933506  0.22050660  0.96534755    -0.07700
C1168       C  0.90070869  0.23337353  0.99357869    -0.03800
C1169       C  0.91412526  0.23674522  0.01534423    -0.09100
C1170       C  0.92548130  0.22712773  0.01207215    -0.16700
H1171       H  0.97618825  0.16803776  0.08850744     0.11400
H1172       H  0.95727534  0.18606031  0.08026218     0.10700
H1173       H  0.95698364  0.18046746  0.91106887     0.10600
H1174       H  0.97584860  0.16252764  0.91862920     0.11200
H1175       H  0.90926403  0.20080602  0.94186788     0.11200
H1176       H  0.88941087  0.21758118  0.94697378     0.11200
H1177       H  0.91588998  0.24675430  0.03554242     0.11300
H1178       H  0.93555663  0.22980411  0.03042762     0.10200
C1179       C  0.77881963  0.15496840  0.01030220    -0.03700
C1180       C  0.79085755  0.15265093  0.04247706    -0.09400
C1181       C  0.80231394  0.16223682  0.04159791    -0.17100
C1182       C  0.80180873  0.17437018  0.00916160     0.25100
C1183       C  0.78962074  0.17715117  0.97919333    -0.18700
C1184       C  0.77820970  0.16763500  0.98000647    -0.07700
C1185       C  0.81359905  0.18417740  0.00661382    -0.14100
C1186       C  0.82268545  0.19322361  0.00296985    -0.13800
C1187       C  0.83250590  0.20499646  0.99957585     0.25000
C1188       C  0.82789189  0.21867475  0.01353694    -0.19200
C1189       C  0.83742661  0.23009014  0.01326425    -0.07700
C1190       C  0.85177286  0.22800789  0.99913026    -0.03800
C1191       C  0.85620741  0.21435754  0.98312668    -0.09100
C1192       C  0.84663031  0.20288998  0.98348699    -0.16700
H1193       H  0.79167085  0.14335379  0.06745652     0.11400
H1194       H  0.81161133  0.16010191  0.06576845     0.10700
H1195       H  0.78895848  0.18666636  0.95482846     0.10600
H1196       H  0.76893552  0.17028199  0.95656889     0.11200
H1197       H  0.81696536  0.22047578  0.02560316     0.11200
H1198       H  0.83363849  0.24052954  0.02511133     0.11200
H1199       H  0.86716372  0.21238118  0.97273513     0.11300
H1200       H  0.85031727  0.19234887  0.97241720     0.10200
C1201       C  0.87428195  0.33752395  0.39056592    -0.03700
C1202       C  0.86157642  0.33390806  0.36431877    -0.09400
C1203       C  0.86175109  0.32428183  0.32209733    -0.17100
C1204       C  0.87459454  0.31811915  0.30571996     0.25100
C1205       C  0.88726668  0.32157266  0.33178928    -0.18700
C1206       C  0.88712987  0.33122680  0.37388530    -0.07700
C1207       C  0.87476786  0.30825212  0.26219538    -0.14100
C1208       C  0.87476087  0.29992791  0.22589997    -0.13800
C1209       C  0.87438571  0.28986259  0.18302862     0.25000
C1210       C  0.88460569  0.29040709  0.14288301    -0.19200
C1211       C  0.88410039  0.28065195  0.10114955    -0.07700
C1212       C  0.87336464  0.27015182  0.09870842    -0.03800
C1213       C  0.86313293  0.26976953  0.13966714    -0.09100
C1214       C  0.86368746  0.27953373  0.18133483    -0.16700
H1215       H  0.85152284  0.33859637  0.37610101     0.11400
H1216       H  0.85187735  0.32166728  0.30217541     0.10700
H1217       H  0.89726104  0.31683835  0.31947807     0.10600
H1218       H  0.89708597  0.33375810  0.39332664     0.11200
H1219       H  0.89294470  0.29838393  0.14374638     0.11200
H1220       H  0.89211116  0.28130785  0.07039452     0.11200
H1221       H  0.85457070  0.26215414  0.14042391     0.11300
H1222       H  0.85570073  0.27905214  0.21224748     0.10200
C1223       C  0.87134394  0.26551336  0.90119349    -0.03700
C1224       C  0.88132480  0.26203994  0.86183988    -0.09400
C1225       C  0.88168629  0.26980343  0.81420986    -0.17100
C1226       C  0.87194599  0.28094100  0.80539592     0.25100
C1227       C  0.86148812  0.28383320  0.84330067    -0.18700
C1228       C  0.86119514  0.27620763  0.89081907    -0.07700
C1229       C  0.87317499  0.29022697  0.75990662    -0.14100
C1230       C  0.87373660  0.29918672  0.72544967    -0.13800
C1231       C  0.87391518  0.31072642  0.68740986     0.25000
C1232       C  0.86109315  0.31630358  0.66798988    -0.19200
C1233       C  0.86117174  0.32777221  0.63236728    -0.07700
C1234       C  0.87410538  0.33387071  0.61557299    -0.03800
C1235       C  0.88694811  0.32822786  0.63546677    -0.09100
C1236       C  0.88683859  0.31675721  0.67116334    -0.16700
H1237       H  0.88930324  0.25391017  0.86913538     0.11400
H1238       H  0.88985141  0.26746806  0.78520331     0.10700
H1239       H  0.85387270  0.29237141  0.83699952     0.10600
H1240       H  0.85330888  0.27898956  0.92034673     0.11200
H1241       H  0.85101282  0.31181610  0.68053364     0.11200
H1242       H  0.85109257  0.33183457  0.61790659     0.11200
H1243       H  0.89708805  0.33266623  0.62345922     0.11300
H1244       H  0.89683507  0.31262348  0.68620191     0.10200
C1245       C  0.87211470  0.60231740  0.61352667    -0.03700
C1246       C  0.85939874  0.59854401  0.63952127    -0.09400
C1247       C  0.85940791  0.58807370  0.67920081    -0.17100
C1248       C  0.87209333  0.58117310  0.69335366     0.25100
C1249       C  0.88476011  0.58473763  0.66729369    -0.18700
C1250       C  0.88478922  0.59523848  0.62775891    -0.07700
C1251       C  0.87215428  0.57055671  0.73491788    -0.14100
C1252       C  0.87227248  0.56171891  0.76986214    -0.13800
C1253       C  0.87241931  0.55113636  0.81153901     0.25000
C1254       C  0.88526932  0.54720072  0.83567386    -0.19200
C1255       C  0.88543213  0.53683473  0.87571124    -0.07700
C1256       C  0.87271361  0.53026298  0.89232933    -0.03800
C1257       C  0.85984163  0.53435273  0.86802480    -0.09100
C1258       C  0.85971315  0.54469191  0.82790787    -0.16700
H1259       H  0.84946689  0.60380117  0.62967388     0.11400
H1260       H  0.84953000  0.58541999  0.69904048     0.10700
H1261       H  0.89464648  0.57947030  0.67779250     0.10600
H1262       H  0.89475373  0.59785131  0.60850615     0.11200
H1263       H  0.89517774  0.55211219  0.82343433     0.11200
H1264       H  0.89551838  0.53397532  0.89363400     0.11200
H1265       H  0.84986545  0.52951132  0.87978372     0.11300
H1266       H  0.84969638  0.54763698  0.80957883     0.10200
C1267       C  0.87170377  0.60493295  0.38712865    -0.03700
C1268       C  0.88449255  0.59949974  0.36618060    -0.09400
C1269       C  0.88425877  0.58910933  0.32654289    -0.17100
C1270       C  0.87126609  0.58400101  0.30725011     0.25100
C1271       C  0.85848364  0.58938286  0.32759653    -0.18700
C1272       C  0.85868594  0.59978252  0.36726407    -0.07700
C1273       C  0.87109016  0.57312897  0.26703296    -0.14100
C1274       C  0.87117334  0.56391111  0.23376508    -0.13800
C1275       C  0.87150339  0.55280703  0.19443943     0.25000
C1276       C  0.85879908  0.54686392  0.17578383    -0.19200
C1277       C  0.85913182  0.53604076  0.13774072    -0.07700
C1278       C  0.87220454  0.53100480  0.11784584    -0.03800
C1279       C  0.88491939  0.53704174  0.13692948    -0.09100
C1280       C  0.88455488  0.54786845  0.17494363    -0.16700
H1281       H  0.89469294  0.60321744  0.38057345     0.11400
H1282       H  0.89421895  0.58501332  0.31110955     0.10700
H1283       H  0.84836173  0.58549743  0.31297628     0.10600
H1284       H  0.84865564  0.60372612  0.38253256     0.11200
H1285       H  0.84863464  0.55059226  0.19064026     0.11200
H1286       H  0.84915226  0.53162948  0.12392716     0.11200
H1287       H  0.89515507  0.53342550  0.12244954     0.11300
H1288       H  0.89445728  0.55238369  0.18914242     0.10200
C1289       C  0.85282450  0.76937683  0.01463031    -0.03700
C1290       C  0.85601683  0.78263941  0.03779254    -0.09400
C1291       C  0.84604280  0.79378279  0.03717919    -0.17100
C1292       C  0.83266467  0.79179992  0.01385861     0.25100
C1293       C  0.82912691  0.77846293  0.99300209    -0.18700
C1294       C  0.83905832  0.76733860  0.99360491    -0.07700
C1295       C  0.82258502  0.80341654  0.01063821    -0.14100
C1296       C  0.81385792  0.81287641  0.00776531    -0.13800
C1297       C  0.80305876  0.82385484  0.00698389     0.25000
C1298       C  0.79613330  0.82765223  0.95975880    -0.19200
C1299       C  0.78507792  0.83775550  0.96025278    -0.07700
C1300       C  0.78076903  0.84405635  0.00809917    -0.03800
C1301       C  0.78811815  0.84047791  0.05492339    -0.09100
C1302       C  0.79912004  0.83044740  0.05434166    -0.16700
H1303       H  0.86631874  0.78464589  0.05493629     0.11400
H1304       H  0.84886683  0.80401859  0.05404097     0.10700
H1305       H  0.81873060  0.77669869  0.97560832     0.10600
H1306       H  0.83591835  0.75717187  0.97712707     0.11200
H1307       H  0.79909581  0.82262202  0.92278583     0.11200
H1308       H  0.77960638  0.84026247  0.92365758     0.11200
H1309       H  0.78532931  0.84539613  0.09225427     0.11300
H1310       H  0.80443565  0.82769414  0.09106233     0.10200
C1311       C  0.90230905  0.76716879  0.01423685    -0.03700
C1312       C  0.90029960  0.78078640  0.03627941    -0.09400
C1313       C  0.91145608  0.79067688  0.03739349    -0.17100
C1314       C  0.92482294  0.78704635  0.01691811     0.25100
C1315       C  0.92710082  0.77335597  0.99671957    -0.18700
C1316       C  0.91597383  0.76347745  0.99556081    -0.07700
C1317       C  0.93612502  0.79741778  0.01547825    -0.14100
C1318       C  0.94563949  0.80603745  0.01328329    -0.13800
C1319       C  0.95702221  0.81630947  0.01100935     0.25000
C1320       C  0.96348886  0.82093096  0.05778566    -0.19200
C1321       C  0.97445197  0.83098570  0.05594684    -0.07700
C1322       C  0.97913475  0.83657588  0.00717264    -0.03800
C1323       C  0.97262867  0.83180479  0.96026210    -0.09100
C1324       C  0.96163173  0.82173829  0.96222686    -0.16700
H1325       H  0.89004984  0.78402050  0.05118540     0.11400
H1326       H  0.90958337  0.80123344  0.05340272     0.10700
H1327       H  0.93744149  0.77035978  0.98126673     0.10600
H1328       H  0.91810396  0.75296383  0.97975842     0.11200
H1329       H  0.96002242  0.81679845  0.09574845     0.11200
H1330       H  0.97921929  0.83441296  0.09282046     0.11200
H1331       H  0.97595939  0.83591252  0.92212828     0.11300
H1332       H  0.95669818  0.81822714  0.92574003     0.10200
C1333       C  0.87345558  0.66299851  0.62182228    -0.03700
C1334       C  0.88648090  0.66704502  0.64485093    -0.09400
C1335       C  0.88682980  0.67731119  0.68486204    -0.17100
C1336       C  0.87419493  0.68368626  0.70221559     0.25100
C1337       C  0.86119173  0.67975614  0.67954716    -0.18700
C1338       C  0.86080727  0.66947026  0.63960025    -0.13300
C1339       C  0.87453244  0.69396355  0.74430158    -0.14100
C1340       C  0.87477718  0.70208942  0.78114231    -0.13800
C1341       C  0.87503082  0.71099824  0.82732523     0.25000
C1342       C  0.87408447  0.70474556  0.87741050    -0.19200
C1343       C  0.87441017  0.71320618  0.92278664    -0.07700
C1344       C  0.87575270  0.72818680  0.91886151    -0.03800
C1345       C  0.87650040  0.73433122  0.86788050    -0.09100
C1346       C  0.87619699  0.72581217  0.82254034    -0.16700
H1347       H  0.89640061  0.66225816  0.63208976     0.11400
H1348       H  0.89694304  0.68023773  0.70238008     0.10700
H1349       H  0.85134609  0.68459623  0.69290152     0.10600
H1350       H  0.85061786  0.66661521  0.62260557     0.11200
H1351       H  0.87307925  0.69326963  0.88144419     0.11200
H1352       H  0.87347508  0.70774513  0.96013084     0.11200
H1353       H  0.87738844  0.74579367  0.86325327     0.11300
H1354       H  0.87687673  0.73077720  0.78384425     0.10200
C1355       C  0.87298757  0.66689886  0.40105720    -0.03700
C1356       C  0.86022717  0.67243745  0.38005581    -0.09400
C1357       C  0.86041800  0.68429385  0.34615905    -0.17100
C1358       C  0.87333728  0.69084450  0.33295854     0.25100
C1359       C  0.88607574  0.68542735  0.35373617    -0.18700
C1360       C  0.88591827  0.67355609  0.38749970    -0.07700
C1361       C  0.87364578  0.70263111  0.29600166    -0.14100
C1362       C  0.87444073  0.71162728  0.26175095    -0.13800
C1363       C  0.87616858  0.72066414  0.21582393     0.25000
C1364       C  0.88694658  0.71742218  0.17959783    -0.19200
C1365       C  0.88766832  0.72461330  0.13127175    -0.07700
C1366       C  0.87764107  0.73521287  0.11841688    -0.03800
C1367       C  0.86735551  0.73910167  0.15606840    -0.09100
C1368       C  0.86656208  0.73177001  0.20458232    -0.16700
H1369       H  0.85009001  0.66759100  0.38968359     0.11400
H1370       H  0.85049404  0.68829383  0.33000126     0.10700
H1371       H  0.89615838  0.69031930  0.34352492     0.10600
H1372       H  0.89592688  0.66962419  0.40309102     0.11200
H1373       H  0.89443814  0.70888356  0.18771624     0.11200
H1374       H  0.89570279  0.72147183  0.10279738     0.11200
H1375       H  0.85945159  0.74714707  0.14665114     0.11300
H1376       H  0.85814073  0.73435719  0.23225061     0.10200
loop_ 
_geom_bond_atom_site_label_1 
_geom_bond_atom_site_label_2 
_geom_bond_distance 
_geom_bond_site_symmetry_2 
_ccdc_geom_bond_type 
C1            C2   1.531       .  S
C1            C7   1.537   1_556  S
C1            C5   1.532       .  S
C1         C1344   1.528       .  S
C2            H9   1.085       .  S
C2            C3   1.369   1_556  D
C3            C4   1.551       .  S
C3         C1289   1.497       .  S
C4            C8   1.542       .  S
C4            C6   1.550       .  S
C4           H10   1.109       .  S
C5           H11   1.085       .  S
C5            C6   1.368   1_556  D
C6         C1311   1.492       .  S
C7           H12   1.081       .  S
C7            C8   1.363       .  D
C8         C1366   1.481       .  S
O13         Ni21   1.921       .  S
O13          C23   1.282       .  A
O14         Ni21   1.921       .  S
O14          C24   1.283       .  A
O15         Ni21   1.914       .  S
O15          C25   1.281       .  A
O16         Ni21   1.916       .  S
O16          C26   1.282       .  A
O17         Ni22   1.919       .  S
O17          C26   1.282       .  A
O18         Ni22   1.916       .  S
O18          C25   1.282       .  A
O19         Ni22   1.921       .  S
O19          C24   1.282       .  A
O20         Ni22   1.922       .  S
O20          C23   1.283       .  A
Ni21        Ni22   2.386       .  S
C23        C1245   1.486       .  S
C24        C1355   1.486       .  S
C25        C1333   1.479       .  S
C26        C1267   1.482       .  S
C27          C28   1.538       .  S
C27          C33   1.530   1_554  S
C27          C31   1.533       .  S
C27        C1212   1.528       .  S
C28          H35   1.080       .  S
C28          C29   1.366       .  D
C29          C30   1.546   1_554  S
C29        C1190   1.487   1_554  S
C30          C34   1.545       .  S
C30          C32   1.549   1_556  S
C30          H36   1.109       .  S
C31          H37   1.085       .  S
C31          C32   1.371       .  D
C32        C1168   1.497   1_554  S
C33          H38   1.087       .  S
C33          C34   1.365       .  D
C34        C1223   1.484       .  S
O39         Ni47   1.923       .  S
O39          C49   1.283       .  A
O40         Ni47   1.923       .  S
O40          C50   1.283       .  A
O41         Ni47   1.915       .  S
O41          C51   1.281       .  A
O42         Ni47   1.915       .  S
O42          C52   1.281       .  A
O43         Ni48   1.920       .  S
O43          C52   1.282       .  A
O44         Ni48   1.918       .  S
O44          C51   1.282       .  A
O45         Ni48   1.920       .  S
O45          C50   1.282       .  A
O46         Ni48   1.920       .  S
O46          C49   1.282       .  A
Ni47        Ni48   2.386       .  S
C49        C1113   1.486       .  S
C50        C1234   1.486       .  S
C51        C1201   1.480       .  S
C52        C1135   1.482       .  S
O53         Ni61   1.921       .  S
O53          C63   1.282       .  A
O54         Ni61   1.921   1_556  S
O54          C64   1.283       .  A
O55         Ni61   1.916   1_556  S
O55          C65   1.281       .  A
O56         Ni61   1.917       .  S
O56          C66   1.282       .  A
O57         Ni62   1.918       .  S
O57          C66   1.282       .  A
O58         Ni62   1.921   1_556  S
O58          C65   1.282       .  A
O59         Ni62   1.920   1_556  S
O59          C64   1.282       .  A
O60         Ni62   1.922       .  S
O60          C63   1.283       .  A
Ni61        Ni62   2.385       .  S
C63        C1124   1.486       .  S
C64        C1256   1.485       .  S
C65        C1146   1.483       .  S
C66        C1278   1.482       .  S
C67          C68   1.532       .  S
C67          C73   1.527   1_554  S
C67          C71   1.541       .  S
C67        C1080   1.527       .  S
C68          H75   1.086       .  S
C68          C69   1.368       .  D
C69          C70   1.547   1_554  S
C69        C1300   1.489       .  S
C70          C74   1.548       .  S
C70          C72   1.545       .  S
C70          H76   1.110       .  S
C71          H77   1.081       .  S
C71          C72   1.369   1_554  D
C72        C1047   1.490       .  S
C73          H78   1.087       .  S
C73          C74   1.364       .  D
C74        C1091   1.488       .  S
O79         Ni87   1.923       .  S
O79          C89   1.283       .  A
O80         Ni87   1.924       .  S
O80          C90   1.283       .  A
O81         Ni87   1.917       .  S
O81          C91   1.282       .  A
O82         Ni87   1.920       .  S
O82          C92   1.282       .  A
O83         Ni88   1.919       .  S
O83          C92   1.282       .  A
O84         Ni88   1.917       .  S
O84          C91   1.282       .  A
O85         Ni88   1.921       .  S
O85          C90   1.282       .  A
O86         Ni88   1.921       .  S
O86          C89   1.282       .  A
Ni87        Ni88   2.385       .  S
C89        C1014   1.487       .  S
C90        C1102   1.488       .  S
C91        C1069   1.481       .  S
C92        C1025   1.485       .  S
C93          C94   1.537       .  S
C93          C99   1.531   1_556  S
C93          C97   1.531       .  S
C93         C959   1.528       .  S
C94         H101   1.079       .  S
C94          C95   1.367   1_556  D
C95          C96   1.548       .  S
C95         C937   1.492       .  S
C96         C100   1.546       .  S
C96          C98   1.549       .  S
C96         H102   1.110       .  S
C97         H103   1.086       .  S
C97          C98   1.367   1_556  D
C98         C915   1.490       .  S
C99         H104   1.087       .  S
C99         C100   1.365       .  D
C100        C981   1.484       .  S
O105       Ni113   1.927       .  S
O105        C115   1.284       .  A
O106       Ni113   1.927       .  S
O106        C116   1.284       .  A
O107       Ni113   1.916       .  S
O107        C117   1.281       .  A
O108       Ni113   1.913       .  S
O108        C118   1.281       .  A
O109       Ni114   1.918       .  S
O109        C118   1.282       .  A
O110       Ni114   1.921       .  S
O110        C117   1.283       .  A
O111       Ni114   1.919       .  S
O111        C116   1.282       .  A
O112       Ni114   1.919       .  S
O112        C115   1.282       .  A
Ni113      Ni114   2.385       .  S
C115        C992   1.488       .  S
C116        C871   1.488       .  S
C117        C893   1.483       .  S
C118        C970   1.479       .  S
O119       Ni127   1.920       .  S
O119        C129   1.282       .  A
O120       Ni127   1.923   1_556  S
O120        C130   1.283       .  A
O121       Ni127   1.918       .  S
O121        C131   1.282       .  A
O122       Ni127   1.920   1_556  S
O122        C132   1.282       .  A
O123       Ni128   1.921   1_556  S
O123        C132   1.282       .  A
O124       Ni128   1.921       .  S
O124        C131   1.282       .  A
O125       Ni128   1.923   1_556  S
O125        C130   1.283       .  A
O126       Ni128   1.924       .  S
O126        C129   1.283       .  A
Ni127      Ni128   2.385       .  S
C129       C1003   1.486       .  S
C130        C882   1.488       .  S
C131        C904   1.483       .  S
C132       C1036   1.485       .  S
C133        C134   1.529       .  S
C133        C139   1.528   1_556  S
C133        C137   1.536       .  S
C133        C838   1.523       .  S
C134        H141   1.085       .  S
C134        C135   1.369   1_556  D
C135        C136   1.552       .  S
C135       C1179   1.498       .  S
C136        C140   1.548       .  S
C136        C138   1.546       .  S
C136        H142   1.108       .  S
C137        H143   1.081       .  S
C137        C138   1.366   1_556  D
C138        C816   1.485       .  S
C139        H144   1.086       .  S
C139        C140   1.365       .  D
C140        C849   1.488       .  S
O145       Ni153   1.916       .  S
O145        C155   1.282       .  A
O146       Ni153   1.916       .  S
O146        C156   1.281       .  A
O147       Ni153   1.915       .  S
O147        C157   1.281       .  A
O148       Ni153   1.912       .  S
O148        C158   1.281       .  A
O149       Ni154   1.914       .  S
O149        C158   1.281       .  A
O150       Ni154   1.917       .  S
O150        C157   1.282       .  A
O151       Ni154   1.920       .  S
O151        C156   1.282       .  A
O152       Ni154   1.922       .  S
O152        C155   1.283       .  A
Ni153      Ni154   2.386       .  S
C155        C860   1.484       .  S
C156        C761   1.482       .  S
C157        C783   1.480       .  S
C158        C827   1.476       .  S
C159        C160   1.537       .  S
C159        C165   1.530       .  S
C159        C163   1.531       .  S
C159        C717   1.526       .  S
C160        H167   1.081       .  S
C160        C161   1.366       .  D
C161        C162   1.546   1_554  S
C161        C706   1.485   1_554  S
C162        C166   1.546       .  S
C162        C164   1.547   1_556  S
C162        H168   1.109       .  S
C163        H169   1.086       .  S
C163        C164   1.368       .  D
C164        C684   1.492   1_554  S
C165        H170   1.086       .  S
C165        C166   1.366   1_554  D
C166        C739   1.487       .  S
O171       Ni179   1.921       .  S
O171        C181   1.282       .  A
O172       Ni179   1.919       .  S
O172        C182   1.282       .  A
O173       Ni179   1.918       .  S
O173        C183   1.282       .  A
O174       Ni179   1.917       .  S
O174        C184   1.282       .  A
O175       Ni180   1.914       .  S
O175        C184   1.281       .  A
O176       Ni180   1.915       .  S
O176        C183   1.281       .  A
O177       Ni180   1.919       .  S
O177        C182   1.282       .  A
O178       Ni180   1.920       .  S
O178        C181   1.282       .  A
Ni179      Ni180   2.386       .  S
C181        C750   1.485       .  S
C182        C629   1.483       .  S
C183        C651   1.481       .  S
C184        C728   1.480       .  S
O185       Ni193   1.917   1_556  S
O185        C195   1.282       .  A
O186       Ni193   1.918       .  S
O186        C196   1.282       .  A
O187       Ni193   1.918   1_556  S
O187        C197   1.282       .  A
O188       Ni193   1.918       .  S
O188        C198   1.282       .  A
O189       Ni194   1.917       .  S
O189        C198   1.282       .  A
O190       Ni194   1.916   1_556  S
O190        C197   1.281       .  A
O191       Ni194   1.918       .  S
O191        C196   1.282       .  A
O192       Ni194   1.918   1_556  S
O192        C195   1.282       .  A
Ni193      Ni194   2.386       .  S
C195        C772   1.482       .  S
C196        C640   1.483       .  S
C197        C662   1.481       .  S
C198        C794   1.481       .  S
C199        C200   1.536       .  S
C199        C205   1.529   1_554  S
C199        C203   1.532       .  S
C199        C585   1.523       .  S
C200        H207   1.081       .  S
C200        C201   1.364       .  D
C201        C202   1.545   1_554  S
C201        C948   1.482   1_554  S
C202        C206   1.544       .  S
C202        C204   1.548   1_556  S
C202        H208   1.109       .  S
C203        H209   1.085       .  S
C203        C204   1.370       .  D
C204        C574   1.494   1_554  S
C205        H210   1.087       .  S
C205        C206   1.364       .  D
C206        C607   1.483       .  S
O211       Ni219   1.921       .  S
O211        C221   1.283       .  A
O212       Ni219   1.922       .  S
O212        C222   1.283       .  A
O213       Ni219   1.913       .  S
O213        C223   1.281       .  A
O214       Ni219   1.913       .  S
O214        C224   1.281       .  A
O215       Ni220   1.913       .  S
O215        C224   1.281       .  A
O216       Ni220   1.909       .  S
O216        C223   1.280       .  A
O217       Ni220   1.921       .  S
O217        C222   1.282       .  A
O218       Ni220   1.922       .  S
O218        C221   1.283       .  A
Ni219      Ni220   2.386       .  S
C221        C530   1.487       .  S
C222        C618   1.486       .  S
C223        C596   1.475       .  S
C224        C541   1.477       .  S
C225        C226   1.530       .  S
C225        C231   1.529   1_556  S
C225        C229   1.536       .  S
C225        C486   1.524       .  S
C226        H233   1.086       .  S
C226        C227   1.368   1_556  D
C227        C228   1.551       .  S
C227        C695   1.493       .  S
C228        C232   1.546       .  S
C228        C230   1.547       .  S
C228        H234   1.109       .  S
C229        H235   1.080       .  S
C229        C230   1.367   1_556  D
C230        C453   1.489       .  S
C231        H236   1.087       .  S
C231        C232   1.365       .  D
C232        C508   1.486       .  S
O237       Ni245   1.924       .  S
O237        C247   1.283       .  A
O238       Ni245   1.926       .  S
O238        C248   1.284       .  A
O239       Ni245   1.910       .  S
O239        C249   1.280       .  A
O240       Ni245   1.909       .  S
O240        C250   1.280       .  A
O241       Ni246   1.915       .  S
O241        C250   1.282       .  A
O242       Ni246   1.917       .  S
O242        C249   1.282       .  A
O243       Ni246   1.920       .  S
O243        C248   1.282       .  A
O244       Ni246   1.921       .  S
O244        C247   1.282       .  A
Ni245      Ni246   2.386       .  S
C247        C497   1.488       .  S
C248        C409   1.488       .  S
C249        C442   1.477       .  S
C250        C475   1.476       .  S
O251       Ni259   1.922   1_556  S
O251        C261   1.283       .  A
O252       Ni259   1.923       .  S
O252        C262   1.283       .  A
O253       Ni259   1.916   1_556  S
O253        C263   1.282       .  A
O254       Ni259   1.918       .  S
O254        C264   1.282       .  A
O255       Ni260   1.910       .  S
O255        C264   1.280       .  A
O256       Ni260   1.909   1_556  S
O256        C263   1.280       .  A
O257       Ni260   1.923       .  S
O257        C262   1.283       .  A
O258       Ni260   1.924   1_556  S
O258        C261   1.283       .  A
Ni259      Ni260   2.386       .  S
C261        C420   1.488       .  S
C262        C519   1.488       .  S
C263        C552   1.476       .  S
C264        C431   1.477       .  S
O265       Ni273   1.910   1_565  S
O265        C275   1.280       .  A
O266       Ni273   1.909       .  S
O266        C276   1.280       .  A
O267       Ni273   1.927   1_565  S
O267        C277   1.284       .  A
O268       Ni273   1.928       .  S
O268        C278   1.284       .  A
O269       Ni274   1.907       .  S
O269        C278   1.279   1_556  A
O270       Ni274   1.907   1_565  S
O270        C277   1.279   1_556  A
O271       Ni274   1.932       .  S
O271        C276   1.285   1_556  A
O272       Ni274   1.934   1_565  S
O272        C275   1.285   1_556  A
Ni273      Ni274   2.385   1_554  S
C275        C926   1.487       .  S
C276        C376   1.485       .  S
C277        C398   1.480       .  S
C278        C673   1.482       .  S
O279       Ni287   1.910   1_655  S
O279        C289   1.280   1_556  A
O280       Ni287   1.908       .  S
O280        C290   1.280   1_556  A
O281       Ni287   1.927   1_655  S
O281        C291   1.284   1_556  A
O282       Ni287   1.928       .  S
O282        C292   1.284   1_556  A
O283       Ni288   1.906       .  S
O283        C292   1.279       .  A
O284       Ni288   1.906   1_655  S
O284        C291   1.279       .  A
O285       Ni288   1.933       .  S
O285        C290   1.285       .  A
O286       Ni288   1.930   1_655  S
O286        C289   1.285       .  A
Ni287      Ni288   2.385   1_556  S
C289       C1157   1.485       .  S
C290        C365   1.485       .  S
C291        C343   1.481       .  S
C292        C464   1.482       .  S
O293       Ni301   1.910   1_655  S
O293        C303   1.280       .  A
O294       Ni301   1.910       .  S
O294        C304   1.280       .  A
O295       Ni301   1.925   1_655  S
O295        C305   1.283       .  A
O296       Ni301   1.925       .  S
O296        C306   1.283       .  A
O297       Ni302   1.909       .  S
O297        C306   1.280   1_556  A
O298       Ni302   1.908   1_655  S
O298        C305   1.280   1_556  A
O299       Ni302   1.923       .  S
O299        C304   1.283   1_556  A
O300       Ni302   1.925   1_655  S
O300        C303   1.283   1_556  A
Ni301      Ni302   2.386   1_554  S
C303       C1322   1.482       .  S
C304        C387   1.481       .  S
C305        C321   1.481       .  S
C306        C563   1.480       .  S
O307       Ni315   1.907   1_545  S
O307        C317   1.280       .  A
O308       Ni315   1.906       .  S
O308        C318   1.279       .  A
O309       Ni315   1.926   1_545  S
O309        C319   1.284       .  A
O310       Ni315   1.928       .  S
O310        C320   1.284       .  A
O311       Ni316   1.913   1_565  S
O311        C320   1.281   1_556  A
O312       Ni316   1.910       .  S
O312        C319   1.280   1_556  A
O313       Ni316   1.926   1_565  S
O313        C318   1.284   1_556  A
O314       Ni316   1.927       .  S
O314        C317   1.284   1_556  A
Ni315      Ni316   2.386   1_564  S
C317        C805   1.482       .  S
C318        C332   1.481       .  S
C319        C354   1.482       .  S
C320       C1058   1.485   1_554  S
C321        C322   1.407       .  A
C321        C326   1.408   1_554  A
C322        C323   1.400       .  A
C322        H335   1.083       .  S
C323        C324   1.401       .  A
C323        H336   1.083       .  S
C324        C325   1.398   1_554  A
C324        C327   1.438       .  S
C325        C326   1.396       .  A
C325        H337   1.084       .  S
C326        H338   1.083       .  S
C327        C328   1.205       .  T
C328        C329   1.438       .  S
C329        C330   1.401   1_554  A
C329        C334   1.397       .  A
C330        C331   1.400       .  A
C330        H339   1.083       .  S
C331        C332   1.407   1_556  A
C331        H340   1.083       .  S
C332        C333   1.408       .  A
C333        C334   1.396       .  A
C333        H341   1.083       .  S
C334        H342   1.084       .  S
C343        C344   1.406   1_554  A
C343        C348   1.408       .  A
C344        C345   1.401       .  A
C344        H357   1.083       .  S
C345        C346   1.401   1_556  A
C345        H358   1.083       .  S
C346        C347   1.398       .  A
C346        C349   1.440       .  S
C347        C348   1.396       .  A
C347        H359   1.084       .  S
C348        H360   1.083       .  S
C349        C350   1.206       .  T
C350        C351   1.440       .  S
C351        C352   1.401       .  A
C351        C356   1.398   1_554  A
C352        C353   1.401       .  A
C352        H361   1.083       .  S
C353        C354   1.407       .  A
C353        H362   1.083       .  S
C354        C355   1.408   1_554  A
C355        C356   1.397       .  A
C355        H363   1.083       .  S
C356        H364   1.084       .  S
C365        C366   1.409   1_554  A
C365        C370   1.407       .  A
C366        C367   1.397       .  A
C366        H379   1.083       .  S
C367        C368   1.398   1_556  A
C367        H380   1.084       .  S
C368        C369   1.403       .  A
C368        C371   1.444       .  S
C369        C370   1.403       .  A
C369        H381   1.083       .  S
C370        H382   1.083       .  S
C371        C372   1.208       .  T
C372        C373   1.444       .  S
C373        C374   1.398       .  A
C373        C378   1.402   1_554  A
C374        C375   1.397       .  A
C374        H383   1.084       .  S
C375        C376   1.409       .  A
C375        H384   1.083       .  S
C376        C377   1.407   1_554  A
C377        C378   1.403       .  A
C377        H385   1.083       .  S
C378        H386   1.083       .  S
C387        C388   1.407   1_554  A
C387        C392   1.408       .  A
C388        C389   1.400       .  A
C388        H401   1.083       .  S
C389        C390   1.400   1_556  A
C389        H402   1.083       .  S
C390        C391   1.398       .  A
C390        C393   1.439       .  S
C391        C392   1.397       .  A
C391        H403   1.084       .  S
C392        H404   1.083       .  S
C393        C394   1.205       .  T
C394        C395   1.439       .  S
C395        C396   1.401       .  A
C395        C400   1.398   1_554  A
C396        C397   1.400       .  A
C396        H405   1.083       .  S
C397        C398   1.406       .  A
C397        H406   1.083       .  S
C398        C399   1.408   1_554  A
C399        C400   1.396       .  A
C399        H407   1.083       .  S
C400        H408   1.084       .  S
C409        C410   1.409       .  A
C409        C414   1.408       .  A
C410        C411   1.401       .  A
C410        H423   1.083       .  S
C411        C412   1.400       .  A
C411        H424   1.083       .  S
C412        C413   1.401       .  A
C412        C415   1.447       .  S
C413        C414   1.402       .  A
C413        H425   1.083       .  S
C414        H426   1.083       .  S
C415        C416   1.210       .  T
C416        C417   1.447       .  S
C417        C418   1.401       .  A
C417        C422   1.401       .  A
C418        C419   1.402       .  A
C418        H427   1.083       .  S
C419        C420   1.409       .  A
C419        H428   1.083       .  S
C420        C421   1.408       .  A
C421        C422   1.401       .  A
C421        H429   1.083       .  S
C422        H430   1.083       .  S
C431        C432   1.406       .  A
C431        C436   1.407       .  A
C432        C433   1.398       .  A
C432        H445   1.083       .  S
C433        C434   1.400       .  A
C433        H446   1.084       .  S
C434        C435   1.398       .  A
C434        C437   1.435       .  S
C435        C436   1.396       .  A
C435        H447   1.084       .  S
C436        H448   1.083       .  S
C437        C438   1.203       .  T
C438        C439   1.435       .  S
C439        C440   1.399       .  A
C439        C444   1.398       .  A
C440        C441   1.398       .  A
C440        H449   1.084       .  S
C441        C442   1.407       .  A
C441        H450   1.083       .  S
C442        C443   1.407       .  A
C443        C444   1.396       .  A
C443        H451   1.083       .  S
C444        H452   1.084       .  S
C453        C454   1.409       .  A
C453        C458   1.404       .  A
C454        C455   1.396       .  A
C454        H467   1.083       .  S
C455        C456   1.398       .  A
C455        H468   1.084       .  S
C456        C457   1.400       .  A
C456        C459   1.439       .  S
C457        C458   1.400       .  A
C457        H469   1.083       .  S
C458        H470   1.076       .  S
C459        C460   1.206       .  T
C460        C461   1.439       .  S
C461        C462   1.401   1_554  A
C461        C466   1.397       .  A
C462        C463   1.401       .  A
C462        H471   1.083       .  S
C463        C464   1.406   1_556  A
C463        H472   1.083       .  S
C464        C465   1.409       .  A
C465        C466   1.396       .  A
C465        H473   1.083       .  S
C466        H474   1.084       .  S
C475        C476   1.406       .  A
C475        C480   1.407       .  A
C476        C477   1.396       .  A
C476        H489   1.083       .  S
C477        C478   1.399       .  A
C477        H490   1.084       .  S
C478        C479   1.398       .  A
C478        C481   1.433       .  S
C479        C480   1.396       .  A
C479        H491   1.084       .  S
C480        H492   1.083       .  S
C481        C482   1.202       .  T
C482        C483   1.433       .  S
C483        C484   1.397       .  A
C483        C488   1.396       .  A
C484        C485   1.397       .  A
C484        H493   1.084       .  S
C485        C486   1.412       .  A
C485        H494   1.076       .  S
C486        C487   1.410       .  A
C487        C488   1.394       .  A
C487        H495   1.083       .  S
C488        H496   1.084       .  S
C497        C498   1.408       .  A
C497        C502   1.409       .  A
C498        C499   1.401       .  A
C498        H511   1.083       .  S
C499        C500   1.401       .  A
C499        H512   1.083       .  S
C500        C501   1.400       .  A
C500        C503   1.446       .  S
C501        C502   1.401       .  A
C501        H513   1.083       .  S
C502        H514   1.083       .  S
C503        C504   1.210       .  T
C504        C505   1.445       .  S
C505        C506   1.398       .  A
C505        C510   1.404       .  A
C506        C507   1.396       .  A
C506        H515   1.084       .  S
C507        C508   1.407       .  A
C507        H516   1.083       .  S
C508        C509   1.405       .  A
C509        C510   1.405       .  A
C509        H517   1.083       .  S
C510        H518   1.083       .  S
C519        C520   1.409       .  A
C519        C524   1.408       .  A
C520        C521   1.401       .  A
C520        H533   1.083       .  S
C521        C522   1.401       .  A
C521        H534   1.083       .  S
C522        C523   1.401       .  A
C522        C525   1.446       .  S
C523        C524   1.401       .  A
C523        H535   1.083       .  S
C524        H536   1.083       .  S
C525        C526   1.210       .  T
C526        C527   1.446       .  S
C527        C528   1.401       .  A
C527        C532   1.401       .  A
C528        C529   1.401       .  A
C528        H537   1.083       .  S
C529        C530   1.408       .  A
C529        H538   1.083       .  S
C530        C531   1.408       .  A
C531        C532   1.401       .  A
C531        H539   1.083       .  S
C532        H540   1.083       .  S
C541        C542   1.407       .  A
C541        C546   1.407       .  A
C542        C543   1.396       .  A
C542        H555   1.083       .  S
C543        C544   1.398       .  A
C543        H556   1.084       .  S
C544        C545   1.399       .  A
C544        C547   1.434       .  S
C545        C546   1.397       .  A
C545        H557   1.084       .  S
C546        H558   1.083       .  S
C547        C548   1.202       .  T
C548        C549   1.434       .  S
C549        C550   1.398       .  A
C549        C554   1.399       .  A
C550        C551   1.396       .  A
C550        H559   1.084       .  S
C551        C552   1.407       .  A
C551        H560   1.083       .  S
C552        C553   1.406       .  A
C553        C554   1.397       .  A
C553        H561   1.083       .  S
C554        H562   1.084       .  S
C563        C564   1.408   1_554  A
C563        C568   1.406       .  A
C564        C565   1.397       .  A
C564        H577   1.083       .  S
C565        C566   1.398       .  A
C565        H578   1.084       .  S
C566        C567   1.401   1_556  A
C566        C569   1.440       .  S
C567        C568   1.400       .  A
C567        H579   1.083       .  S
C568        H580   1.083       .  S
C569        C570   1.206       .  T
C570        C571   1.440       .  S
C571        C572   1.397   1_556  A
C571        C576   1.400       .  A
C572        C573   1.396       .  A
C572        H581   1.084       .  S
C573        C574   1.410   1_554  A
C573        H582   1.082       .  S
C574        C575   1.407       .  A
C575        C576   1.401       .  A
C575        H583   1.078       .  S
C576        H584   1.083       .  S
C585        C586   1.412       .  A
C585        C590   1.410       .  A
C586        C587   1.395       .  A
C586        H599   1.076       .  S
C587        C588   1.396       .  A
C587        H600   1.084       .  S
C588        C589   1.396       .  A
C588        C591   1.432       .  S
C589        C590   1.395       .  A
C589        H601   1.084       .  S
C590        H602   1.083       .  S
C591        C592   1.201       .  T
C592        C593   1.432       .  S
C593        C594   1.398       .  A
C593        C598   1.398       .  A
C594        C595   1.396       .  A
C594        H603   1.084       .  S
C595        C596   1.407       .  A
C595        H604   1.083       .  S
C596        C597   1.407       .  A
C597        C598   1.395       .  A
C597        H605   1.083       .  S
C598        H606   1.084       .  S
C607        C608   1.406       .  A
C607        C612   1.404       .  A
C608        C609   1.394       .  A
C608        H621   1.083       .  S
C609        C610   1.398       .  A
C609        H622   1.084       .  S
C610        C611   1.404       .  A
C610        C613   1.443       .  S
C611        C612   1.405       .  A
C611        H623   1.083       .  S
C612        H624   1.083       .  S
C613        C614   1.208       .  T
C614        C615   1.444       .  S
C615        C616   1.400       .  A
C615        C620   1.401       .  A
C616        C617   1.400       .  A
C616        H625   1.083       .  S
C617        C618   1.408       .  A
C617        H626   1.083       .  S
C618        C619   1.408       .  A
C619        C620   1.400       .  A
C619        H627   1.083       .  S
C620        H628   1.083       .  S
C629        C630   1.408       .  A
C629        C634   1.408       .  A
C630        C631   1.399       .  A
C630        H643   1.083       .  S
C631        C632   1.400       .  A
C631        H644   1.084       .  S
C632        C633   1.399       .  A
C632        C635   1.441       .  S
C633        C634   1.399       .  A
C633        H645   1.084       .  S
C634        H646   1.083       .  S
C635        C636   1.207       .  T
C636        C637   1.441       .  S
C637        C638   1.400       .  A
C637        C642   1.399       .  A
C638        C639   1.399       .  A
C638        H647   1.083       .  S
C639        C640   1.408       .  A
C639        H648   1.083       .  S
C640        C641   1.408       .  A
C641        C642   1.399       .  A
C641        H649   1.083       .  S
C642        H650   1.084       .  S
C651        C652   1.408       .  A
C651        C656   1.407       .  A
C652        C653   1.398       .  A
C652        H665   1.083       .  S
C653        C654   1.399       .  A
C653        H666   1.084       .  S
C654        C655   1.399       .  A
C654        C657   1.439       .  S
C655        C656   1.399       .  A
C655        H667   1.084       .  S
C656        H668   1.083       .  S
C657        C658   1.206       .  T
C658        C659   1.439       .  S
C659        C660   1.399       .  A
C659        C664   1.399       .  A
C660        C661   1.398       .  A
C660        H669   1.084       .  S
C661        C662   1.407       .  A
C661        H670   1.083       .  S
C662        C663   1.408       .  A
C663        C664   1.398       .  A
C663        H671   1.083       .  S
C664        H672   1.084       .  S
C673        C674   1.409   1_554  A
C673        C678   1.407       .  A
C674        C675   1.397       .  A
C674        H687   1.083       .  S
C675        C676   1.397       .  A
C675        H688   1.084       .  S
C676        C677   1.401   1_556  A
C676        C679   1.440       .  S
C677        C678   1.401       .  A
C677        H689   1.083       .  S
C678        H690   1.083       .  S
C679        C680   1.206       .  T
C680        C681   1.440       .  S
C681        C682   1.397   1_556  A
C681        C686   1.400       .  A
C682        C683   1.397       .  A
C682        H691   1.084       .  S
C683        C684   1.410   1_554  A
C683        H692   1.082       .  S
C684        C685   1.406       .  A
C685        C686   1.400       .  A
C685        H693   1.077       .  S
C686        H694   1.083       .  S
C695        C696   1.406       .  A
C695        C700   1.410   1_554  A
C696        C697   1.402       .  A
C696        H709   1.076       .  S
C697        C698   1.401   1_554  A
C697        H710   1.083       .  S
C698        C699   1.397       .  A
C698        C701   1.441       .  S
C699        C700   1.396       .  A
C699        H711   1.084       .  S
C700        H712   1.082       .  S
C701        C702   1.207       .  T
C702        C703   1.441       .  S
C703        C704   1.398   1_556  A
C703        C708   1.401       .  A
C704        C705   1.396       .  A
C704        H713   1.084       .  S
C705        C706   1.407   1_554  A
C705        H714   1.083       .  S
C706        C707   1.404       .  A
C707        C708   1.401       .  A
C707        H715   1.078       .  S
C708        H716   1.083       .  S
C717        C718   1.412       .  A
C717        C722   1.410       .  A
C718        C719   1.398       .  A
C718        H731   1.076       .  S
C719        C720   1.398       .  A
C719        H732   1.084       .  S
C720        C721   1.396       .  A
C720        C723   1.437       .  S
C721        C722   1.395       .  A
C721        H733   1.084       .  S
C722        H734   1.083       .  S
C723        C724   1.204       .  T
C724        C725   1.437       .  S
C725        C726   1.399       .  A
C725        C730   1.399       .  A
C726        C727   1.398       .  A
C726        H735   1.084       .  S
C727        C728   1.407       .  A
C727        H736   1.083       .  S
C728        C729   1.408       .  A
C729        C730   1.397       .  A
C729        H737   1.083       .  S
C730        H738   1.084       .  S
C739        C740   1.406       .  A
C739        C744   1.407       .  A
C740        C741   1.404       .  A
C740        H753   1.083       .  S
C741        C742   1.403       .  A
C741        H754   1.083       .  S
C742        C743   1.398       .  A
C742        C745   1.443       .  S
C743        C744   1.395       .  A
C743        H755   1.084       .  S
C744        H756   1.083       .  S
C745        C746   1.208       .  T
C746        C747   1.444       .  S
C747        C748   1.400       .  A
C747        C752   1.400       .  A
C748        C749   1.399       .  A
C748        H757   1.084       .  S
C749        C750   1.408       .  A
C749        H758   1.083       .  S
C750        C751   1.408       .  A
C751        C752   1.401       .  A
C751        H759   1.083       .  S
C752        H760   1.083       .  S
C761        C762   1.408       .  A
C761        C766   1.407       .  A
C762        C763   1.399       .  A
C762        H775   1.083       .  S
C763        C764   1.399       .  A
C763        H776   1.083       .  S
C764        C765   1.400       .  A
C764        C767   1.440       .  S
C765        C766   1.399       .  A
C765        H777   1.084       .  S
C766        H778   1.083       .  S
C767        C768   1.206       .  T
C768        C769   1.440       .  S
C769        C770   1.399       .  A
C769        C774   1.400       .  A
C770        C771   1.398       .  A
C770        H779   1.084       .  S
C771        C772   1.407       .  A
C771        H780   1.083       .  S
C772        C773   1.408       .  A
C773        C774   1.399       .  A
C773        H781   1.083       .  S
C774        H782   1.083       .  S
C783        C784   1.407       .  A
C783        C788   1.407       .  A
C784        C785   1.398       .  A
C784        H797   1.083       .  S
C785        C786   1.399       .  A
C785        H798   1.084       .  S
C786        C787   1.400       .  A
C786        C789   1.439       .  S
C787        C788   1.398       .  A
C787        H799   1.084       .  S
C788        H800   1.083       .  S
C789        C790   1.206       .  T
C790        C791   1.439       .  S
C791        C792   1.399       .  A
C791        C796   1.400       .  A
C792        C793   1.398       .  A
C792        H801   1.084       .  S
C793        C794   1.407       .  A
C793        H802   1.083       .  S
C794        C795   1.407       .  A
C795        C796   1.399       .  A
C795        H803   1.083       .  S
C796        H804   1.083       .  S
C805        C806   1.409       .  A
C805        C810   1.407   1_554  A
C806        C807   1.396       .  A
C806        H819   1.083       .  S
C807        C808   1.397       .  A
C807        H820   1.084       .  S
C808        C809   1.401   1_554  A
C808        C811   1.439       .  S
C809        C810   1.401       .  A
C809        H821   1.083       .  S
C810        H822   1.083       .  S
C811        C812   1.206       .  T
C812        C813   1.439       .  S
C813        C814   1.398       .  A
C813        C818   1.401       .  A
C814        C815   1.396       .  A
C814        H823   1.084       .  S
C815        C816   1.408       .  A
C815        H824   1.083       .  S
C816        C817   1.404       .  A
C817        C818   1.400       .  A
C817        H825   1.077       .  S
C818        H826   1.084       .  S
C827        C828   1.407       .  A
C827        C832   1.407       .  A
C828        C829   1.397       .  A
C828        H841   1.083       .  S
C829        C830   1.398       .  A
C829        H842   1.084       .  S
C830        C831   1.398       .  A
C830        C833   1.433       .  S
C831        C832   1.395       .  A
C831        H843   1.084       .  S
C832        H844   1.083       .  S
C833        C834   1.202       .  T
C834        C835   1.433       .  S
C835        C836   1.397       .  A
C835        C840   1.395       .  A
C836        C837   1.396       .  A
C836        H845   1.084       .  S
C837        C838   1.412       .  A
C837        H846   1.076       .  S
C838        C839   1.410       .  A
C839        C840   1.394       .  A
C839        H847   1.083       .  S
C840        H848   1.084       .  S
C849        C850   1.408       .  A
C849        C854   1.406       .  A
C850        C851   1.395       .  A
C850        H863   1.083       .  S
C851        C852   1.397       .  A
C851        H864   1.084       .  S
C852        C853   1.403       .  A
C852        C855   1.443       .  S
C853        C854   1.405       .  A
C853        H865   1.083       .  S
C854        H866   1.083       .  S
C855        C856   1.208       .  T
C856        C857   1.443       .  S
C857        C858   1.400       .  A
C857        C862   1.401       .  A
C858        C859   1.399       .  A
C858        H867   1.083       .  S
C859        C860   1.408       .  A
C859        H868   1.083       .  S
C860        C861   1.407       .  A
C861        C862   1.400       .  A
C861        H869   1.083       .  S
C862        H870   1.083       .  S
C871        C872   1.408       .  A
C871        C876   1.409       .  A
C872        C873   1.402       .  A
C872        H885   1.083       .  S
C873        C874   1.402       .  A
C873        H886   1.083       .  S
C874        C875   1.400       .  A
C874        C877   1.447       .  S
C875        C876   1.400       .  A
C875        H887   1.083       .  S
C876        H888   1.083       .  S
C877        C878   1.210       .  T
C878        C879   1.447       .  S
C879        C880   1.401       .  A
C879        C884   1.400       .  A
C880        C881   1.402       .  A
C880        H889   1.083       .  S
C881        C882   1.409       .  A
C881        H890   1.083       .  S
C882        C883   1.408       .  A
C883        C884   1.401       .  A
C883        H891   1.083       .  S
C884        H892   1.083       .  S
C893        C894   1.408       .  A
C893        C898   1.408       .  A
C894        C895   1.400       .  A
C894        H907   1.083       .  S
C895        C896   1.400       .  A
C895        H908   1.083       .  S
C896        C897   1.399       .  A
C896        C899   1.442       .  S
C897        C898   1.399       .  A
C897        H909   1.084       .  S
C898        H910   1.083       .  S
C899        C900   1.207       .  T
C900        C901   1.442       .  S
C901        C902   1.400       .  A
C901        C906   1.400       .  A
C902        C903   1.399       .  A
C902        H911   1.084       .  S
C903        C904   1.408       .  A
C903        H912   1.083       .  S
C904        C905   1.408       .  A
C905        C906   1.400       .  A
C905        H913   1.083       .  S
C906        H914   1.083       .  S
C915        C916   1.408       .  A
C915        C920   1.405       .  A
C916        C917   1.399       .  A
C916        H929   1.083       .  S
C917        C918   1.399       .  A
C917        H930   1.083       .  S
C918        C919   1.401       .  A
C918        C921   1.445       .  S
C919        C920   1.402       .  A
C919        H931   1.083       .  S
C920        H932   1.077       .  S
C921        C922   1.209       .  T
C922        C923   1.445       .  S
C923        C924   1.403   1_554  A
C923        C928   1.398       .  A
C924        C925   1.403       .  A
C924        H933   1.083       .  S
C925        C926   1.407   1_556  A
C925        H934   1.083       .  S
C926        C927   1.410       .  A
C927        C928   1.398       .  A
C927        H935   1.083       .  S
C928        H936   1.084       .  S
C937        C938   1.410   1_554  A
C937        C942   1.405       .  A
C938        C939   1.394       .  A
C938        H951   1.082       .  S
C939        C940   1.396   1_556  A
C939        H952   1.084       .  S
C940        C941   1.401       .  A
C940        C943   1.439       .  S
C941        C942   1.402       .  A
C941        H953   1.083       .  S
C942        H954   1.078       .  S
C943        C944   1.206   1_554  T
C944        C945   1.439       .  S
C945        C946   1.401       .  A
C945        C950   1.399   1_556  A
C946        C947   1.400       .  A
C946        H955   1.083       .  S
C947        C948   1.403       .  A
C947        H956   1.079       .  S
C948        C949   1.407       .  A
C949        C950   1.396   1_556  A
C949        H957   1.083   1_556  S
C950        H958   1.084       .  S
C959        C960   1.413       .  A
C959        C964   1.411       .  A
C960        C961   1.395       .  A
C960        H973   1.075       .  S
C961        C962   1.396       .  A
C961        H974   1.084       .  S
C962        C963   1.397       .  A
C962        C965   1.436       .  S
C963        C964   1.398       .  A
C963        H975   1.083       .  S
C964        H976   1.083       .  S
C965        C966   1.204       .  T
C966        C967   1.437       .  S
C967        C968   1.398       .  A
C967        C972   1.399       .  A
C968        C969   1.397       .  A
C968        H977   1.084       .  S
C969        C970   1.408       .  A
C969        H978   1.083       .  S
C970        C971   1.407       .  A
C971        C972   1.397       .  A
C971        H979   1.083       .  S
C972        H980   1.084       .  S
C981        C982   1.406       .  A
C981        C986   1.405       .  A
C982        C983   1.396       .  A
C982        H995   1.083       .  S
C983        C984   1.399       .  A
C983        H996   1.084       .  S
C984        C985   1.404       .  A
C984        C987   1.445       .  S
C985        C986   1.405       .  A
C985        H997   1.083       .  S
C986        H998   1.083       .  S
C987        C988   1.210       .  T
C988        C989   1.446       .  S
C989        C990   1.401       .  A
C989        C994   1.400       .  A
C990        C991   1.402       .  A
C990        H999   1.083       .  S
C991        C992   1.408       .  A
C991       H1000   1.083       .  S
C992        C993   1.409       .  A
C993        C994   1.400       .  A
C993       H1001   1.083       .  S
C994       H1002   1.084       .  S
C1003      C1004   1.408       .  A
C1003      C1008   1.408       .  A
C1004      C1005   1.401       .  A
C1004      H1017   1.083       .  S
C1005      C1006   1.401       .  A
C1005      H1018   1.083       .  S
C1006      C1007   1.400       .  A
C1006      C1009   1.445       .  S
C1007      C1008   1.401       .  A
C1007      H1019   1.083       .  S
C1008      H1020   1.083       .  S
C1009      C1010   1.209       .  T
C1010      C1011   1.445       .  S
C1011      C1012   1.401       .  A
C1011      C1016   1.400       .  A
C1012      C1013   1.401       .  A
C1012      H1021   1.083       .  S
C1013      C1014   1.408       .  A
C1013      H1022   1.083       .  S
C1014      C1015   1.408       .  A
C1015      C1016   1.400       .  A
C1015      H1023   1.083       .  S
C1016      H1024   1.083       .  S
C1025      C1026   1.408       .  A
C1025      C1030   1.408       .  A
C1026      C1027   1.401       .  A
C1026      H1039   1.083       .  S
C1027      C1028   1.400       .  A
C1027      H1040   1.083       .  S
C1028      C1029   1.400       .  A
C1028      C1031   1.444       .  S
C1029      C1030   1.399       .  A
C1029      H1041   1.084       .  S
C1030      H1042   1.083       .  S
C1031      C1032   1.208       .  T
C1032      C1033   1.444       .  S
C1033      C1034   1.400       .  A
C1033      C1038   1.400       .  A
C1034      C1035   1.400       .  A
C1034      H1043   1.083       .  S
C1035      C1036   1.408       .  A
C1035      H1044   1.083       .  S
C1036      C1037   1.408       .  A
C1037      C1038   1.400       .  A
C1037      H1045   1.083       .  S
C1038      H1046   1.083       .  S
C1047      C1048   1.406       .  A
C1047      C1052   1.408       .  A
C1048      C1049   1.402       .  A
C1048      H1061   1.083       .  S
C1049      C1050   1.402       .  A
C1049      H1062   1.083       .  S
C1050      C1051   1.399       .  A
C1050      C1053   1.444       .  S
C1051      C1052   1.398       .  A
C1051      H1063   1.084   1_556  S
C1052      H1064   1.083   1_556  S
C1053      C1054   1.209       .  T
C1054      C1055   1.444       .  S
C1055      C1056   1.399       .  A
C1055      C1060   1.402   1_556  A
C1056      C1057   1.399       .  A
C1056      H1065   1.084       .  S
C1057      C1058   1.409       .  A
C1057      H1066   1.083       .  S
C1058      C1059   1.407   1_556  A
C1059      C1060   1.402       .  A
C1059      H1067   1.083       .  S
C1060      H1068   1.083       .  S
C1069      C1070   1.407       .  A
C1069      C1074   1.408       .  A
C1070      C1071   1.398       .  A
C1070      H1083   1.083       .  S
C1071      C1072   1.399       .  A
C1071      H1084   1.084       .  S
C1072      C1073   1.399       .  A
C1072      C1075   1.438       .  S
C1073      C1074   1.399       .  A
C1073      H1085   1.083       .  S
C1074      H1086   1.083       .  S
C1075      C1076   1.205       .  T
C1076      C1077   1.438       .  S
C1077      C1078   1.397       .  A
C1077      C1082   1.397       .  A
C1078      C1079   1.398       .  A
C1078      H1087   1.083       .  S
C1079      C1080   1.411       .  A
C1079      H1088   1.083       .  S
C1080      C1081   1.412       .  A
C1081      C1082   1.397       .  A
C1081      H1089   1.077       .  S
C1082      H1090   1.084       .  S
C1091      C1092   1.405       .  A
C1091      C1096   1.408       .  A
C1092      C1093   1.406       .  A
C1092      H1105   1.083       .  S
C1093      C1094   1.404       .  A
C1093      H1106   1.083       .  S
C1094      C1095   1.399       .  A
C1094      C1097   1.447       .  S
C1095      C1096   1.397       .  A
C1095      H1107   1.084       .  S
C1096      H1108   1.083       .  S
C1097      C1098   1.210       .  T
C1098      C1099   1.447       .  S
C1099      C1100   1.401       .  A
C1099      C1104   1.401       .  A
C1100      C1101   1.401       .  A
C1100      H1109   1.083       .  S
C1101      C1102   1.408       .  A
C1101      H1110   1.083       .  S
C1102      C1103   1.409       .  A
C1103      C1104   1.402       .  A
C1103      H1111   1.083       .  S
C1104      H1112   1.083       .  S
C1113      C1114   1.408       .  A
C1113      C1118   1.408       .  A
C1114      C1115   1.401       .  A
C1114      H1127   1.083       .  S
C1115      C1116   1.400       .  A
C1115      H1128   1.083       .  S
C1116      C1117   1.400       .  A
C1116      C1119   1.445       .  S
C1117      C1118   1.400       .  A
C1117      H1129   1.083       .  S
C1118      H1130   1.083       .  S
C1119      C1120   1.209       .  T
C1120      C1121   1.445       .  S
C1121      C1122   1.400       .  A
C1121      C1126   1.400       .  A
C1122      C1123   1.400       .  A
C1122      H1131   1.083       .  S
C1123      C1124   1.408       .  A
C1123      H1132   1.083       .  S
C1124      C1125   1.408       .  A
C1125      C1126   1.401       .  A
C1125      H1133   1.083       .  S
C1126      H1134   1.083       .  S
C1135      C1136   1.408       .  A
C1135      C1140   1.407       .  A
C1136      C1137   1.399       .  A
C1136      H1149   1.083       .  S
C1137      C1138   1.399       .  A
C1137      H1150   1.084       .  S
C1138      C1139   1.400       .  A
C1138      C1141   1.441       .  S
C1139      C1140   1.399       .  A
C1139      H1151   1.083       .  S
C1140      H1152   1.083       .  S
C1141      C1142   1.207       .  T
C1142      C1143   1.441       .  S
C1143      C1144   1.399       .  A
C1143      C1148   1.400       .  A
C1144      C1145   1.398       .  A
C1144      H1153   1.084       .  S
C1145      C1146   1.408       .  A
C1145      H1154   1.083       .  S
C1146      C1147   1.408       .  A
C1147      C1148   1.400       .  A
C1147      H1155   1.083       .  S
C1148      H1156   1.083       .  S
C1157      C1158   1.407       .  A
C1157      C1162   1.409   1_554  A
C1158      C1159   1.401       .  A
C1158      H1171   1.083       .  S
C1159      C1160   1.402   1_554  A
C1159      H1172   1.083       .  S
C1160      C1161   1.398       .  A
C1160      C1163   1.443       .  S
C1161      C1162   1.398       .  A
C1161      H1173   1.084       .  S
C1162      H1174   1.083       .  S
C1163      C1164   1.208       .  T
C1164      C1165   1.443       .  S
C1165      C1166   1.400       .  A
C1165      C1170   1.398   1_556  A
C1166      C1167   1.401       .  A
C1166      H1175   1.083       .  S
C1167      C1168   1.408       .  A
C1167      H1176   1.077       .  S
C1168      C1169   1.411   1_556  A
C1169      C1170   1.398       .  A
C1169      H1177   1.081       .  S
C1170      H1178   1.084       .  S
C1179      C1180   1.408       .  A
C1179      C1184   1.412   1_554  A
C1180      C1181   1.403       .  A
C1180      H1193   1.077       .  S
C1181      C1182   1.400       .  A
C1181      H1194   1.083       .  S
C1182      C1183   1.396   1_554  A
C1182      C1185   1.441       .  S
C1183      C1184   1.395       .  A
C1183      H1195   1.084       .  S
C1184      H1196   1.081       .  S
C1185      C1186   1.207       .  T
C1186      C1187   1.441   1_554  S
C1187      C1188   1.398   1_556  A
C1187      C1192   1.401       .  A
C1188      C1189   1.396       .  A
C1188      H1197   1.084       .  S
C1189      C1190   1.407   1_554  A
C1189      H1198   1.083       .  S
C1190      C1191   1.405       .  A
C1191      C1192   1.402       .  A
C1191      H1199   1.078       .  S
C1192      H1200   1.083       .  S
C1201      C1202   1.407       .  A
C1201      C1206   1.407       .  A
C1202      C1203   1.398       .  A
C1202      H1215   1.083       .  S
C1203      C1204   1.400       .  A
C1203      H1216   1.084       .  S
C1204      C1205   1.399       .  A
C1204      C1207   1.438       .  S
C1205      C1206   1.398       .  A
C1205      H1217   1.084       .  S
C1206      H1218   1.083       .  S
C1207      C1208   1.205       .  T
C1208      C1209   1.438       .  S
C1209      C1210   1.397       .  A
C1209      C1214   1.397       .  A
C1210      C1211   1.398       .  A
C1210      H1219   1.083       .  S
C1211      C1212   1.411       .  A
C1211      H1220   1.083       .  S
C1212      C1213   1.413       .  A
C1213      C1214   1.397       .  A
C1213      H1221   1.076       .  S
C1214      H1222   1.084       .  S
C1223      C1224   1.405       .  A
C1223      C1228   1.406       .  A
C1224      C1225   1.405       .  A
C1224      H1237   1.083       .  S
C1225      C1226   1.404       .  A
C1225      H1238   1.083       .  S
C1226      C1227   1.398       .  A
C1226      C1229   1.444       .  S
C1227      C1228   1.396       .  A
C1227      H1239   1.084       .  S
C1228      H1240   1.083       .  S
C1229      C1230   1.209       .  T
C1230      C1231   1.445       .  S
C1231      C1232   1.400       .  A
C1231      C1236   1.401       .  A
C1232      C1233   1.400       .  A
C1232      H1241   1.084       .  S
C1233      C1234   1.408       .  A
C1233      H1242   1.083       .  S
C1234      C1235   1.408       .  A
C1235      C1236   1.401       .  A
C1235      H1243   1.083       .  S
C1236      H1244   1.083       .  S
C1245      C1246   1.408       .  A
C1245      C1250   1.408       .  A
C1246      C1247   1.401       .  A
C1246      H1259   1.083       .  S
C1247      C1248   1.401       .  A
C1247      H1260   1.083       .  S
C1248      C1249   1.400       .  A
C1248      C1251   1.444       .  S
C1249      C1250   1.400       .  A
C1249      H1261   1.083       .  S
C1250      H1262   1.083       .  S
C1251      C1252   1.209       .  T
C1252      C1253   1.444       .  S
C1253      C1254   1.400       .  A
C1253      C1258   1.400       .  A
C1254      C1255   1.400       .  A
C1254      H1263   1.083       .  S
C1255      C1256   1.408       .  A
C1255      H1264   1.083       .  S
C1256      C1257   1.408       .  A
C1257      C1258   1.400       .  A
C1257      H1265   1.083       .  S
C1258      H1266   1.083       .  S
C1267      C1268   1.408       .  A
C1267      C1272   1.408       .  A
C1268      C1269   1.398       .  A
C1268      H1281   1.083       .  S
C1269      C1270   1.399       .  A
C1269      H1282   1.084       .  S
C1270      C1271   1.400       .  A
C1270      C1273   1.440       .  S
C1271      C1272   1.399       .  A
C1271      H1283   1.083       .  S
C1272      H1284   1.083       .  S
C1273      C1274   1.206       .  T
C1274      C1275   1.440       .  S
C1275      C1276   1.399       .  A
C1275      C1280   1.400       .  A
C1276      C1277   1.399       .  A
C1276      H1285   1.083       .  S
C1277      C1278   1.408       .  A
C1277      H1286   1.083       .  S
C1278      C1279   1.407       .  A
C1279      C1280   1.399       .  A
C1279      H1287   1.083       .  S
C1280      H1288   1.084       .  S
C1289      C1290   1.407       .  A
C1289      C1294   1.411   1_554  A
C1290      C1291   1.402       .  A
C1290      H1303   1.077       .  S
C1291      C1292   1.400       .  A
C1291      H1304   1.083       .  S
C1292      C1293   1.397   1_554  A
C1292      C1295   1.443       .  S
C1293      C1294   1.398       .  A
C1293      H1305   1.084       .  S
C1294      H1306   1.082       .  S
C1295      C1296   1.208       .  T
C1296      C1297   1.444       .  S
C1297      C1298   1.403   1_554  A
C1297      C1302   1.397       .  A
C1298      C1299   1.404       .  A
C1298      H1307   1.083       .  S
C1299      C1300   1.406   1_556  A
C1299      H1308   1.083       .  S
C1300      C1301   1.409       .  A
C1301      C1302   1.396       .  A
C1301      H1309   1.082       .  S
C1302      H1310   1.084       .  S
C1311      C1312   1.406       .  A
C1311      C1316   1.410   1_554  A
C1312      C1313   1.400       .  A
C1312      H1325   1.077       .  S
C1313      C1314   1.400       .  A
C1313      H1326   1.083       .  S
C1314      C1315   1.398   1_554  A
C1314      C1317   1.440       .  S
C1315      C1316   1.397       .  A
C1315      H1327   1.084       .  S
C1316      H1328   1.082       .  S
C1317      C1318   1.206       .  T
C1318      C1319   1.440       .  S
C1319      C1320   1.398       .  A
C1319      C1324   1.401   1_554  A
C1320      C1321   1.397       .  A
C1320      H1329   1.084       .  S
C1321      C1322   1.408       .  A
C1321      H1330   1.083       .  S
C1322      C1323   1.407   1_554  A
C1323      C1324   1.400       .  A
C1323      H1331   1.083       .  S
C1324      H1332   1.083       .  S
C1333      C1334   1.407       .  A
C1333      C1338   1.407       .  A
C1334      C1335   1.397       .  A
C1334      H1347   1.083       .  S
C1335      C1336   1.399       .  A
C1335      H1348   1.084       .  S
C1336      C1337   1.399       .  A
C1336      C1339   1.436       .  S
C1337      C1338   1.397       .  A
C1337      H1349   1.084       .  S
C1338      H1350   1.083       .  S
C1339      C1340   1.204       .  T
C1340      C1341   1.436       .  S
C1341      C1342   1.396       .  A
C1341      C1346   1.397       .  A
C1342      C1343   1.395       .  A
C1342      H1351   1.084       .  S
C1343      C1344   1.412       .  A
C1343      H1352   1.076       .  S
C1344      C1345   1.411       .  A
C1345      C1346   1.398       .  A
C1345      H1353   1.083       .  S
C1346      H1354   1.083       .  S
C1355      C1356   1.408       .  A
C1355      C1360   1.408       .  A
C1356      C1357   1.401       .  A
C1356      H1369   1.083       .  S
C1357      C1358   1.400       .  A
C1357      H1370   1.083       .  S
C1358      C1359   1.400       .  A
C1358      C1361   1.445       .  S
C1359      C1360   1.400       .  A
C1359      H1371   1.084       .  S
C1360      H1372   1.083       .  S
C1361      C1362   1.209       .  T
C1362      C1363   1.444       .  S
C1363      C1364   1.398       .  A
C1363      C1368   1.405       .  A
C1364      C1365   1.395       .  A
C1364      H1373   1.084       .  S
C1365      C1366   1.405       .  A
C1365      H1374   1.083       .  S
C1366      C1367   1.404       .  A
C1367      C1368   1.405       .  A
C1367      H1375   1.083       .  S
C1368      H1376   1.083       .  S
